<?xml version="1.0" encoding="UTF-8"?>

<!-- generated on 2021-11-01 11:35:43 by Eclipse SUMO duarouter Version 1.10.0
<configuration xmlns:xsi="http://www.w3.org/2001/XMLSchema-instance" xsi:noNamespaceSchemaLocation="http://sumo.dlr.de/xsd/duarouterConfiguration.xsd">

    <input>
        <net-file value="C:\Users\juane\Sumo\2021-11-01-11-34-18\osm.net.xml"/>
        <route-files value="C:\Users\juane\Sumo\2021-11-01-11-34-18\osm.ship.trips.xml"/>
    </input>

    <output>
        <output-file value="C:\Users\juane\Sumo\2021-11-01-11-34-18\osm.ship.trips.xml.tmp"/>
        <write-trips value="true"/>
    </output>

    <time>
        <begin value="0"/>
        <end value="3600"/>
    </time>

    <report>
        <no-warnings value="true"/>
        <ignore-errors value="true"/>
        <no-step-log value="true"/>
    </report>

</configuration>
-->

<routes xmlns:xsi="http://www.w3.org/2001/XMLSchema-instance" xsi:noNamespaceSchemaLocation="http://sumo.dlr.de/xsd/routes_file.xsd">
    <vType id="ship_ship" vClass="ship"/>
    <trip id="ship1" type="ship_ship" depart="0.18" departSpeed="max" from="-353879093" to="-309939688"/>
    <trip id="ship4" type="ship_ship" depart="0.72" departSpeed="max" from="-965078020" to="-309900357"/>
    <trip id="ship13" type="ship_ship" depart="2.33" departSpeed="max" from="-345754189" to="-309903995"/>
    <trip id="ship15" type="ship_ship" depart="2.69" departSpeed="max" from="309955227" to="353875142"/>
    <trip id="ship16" type="ship_ship" depart="2.87" departSpeed="max" from="309900357" to="965078020"/>
    <trip id="ship17" type="ship_ship" depart="3.05" departSpeed="max" from="-965078020" to="309928148"/>
    <trip id="ship21" type="ship_ship" depart="3.76" departSpeed="max" from="-353875142" to="-309955227"/>
    <trip id="ship30" type="ship_ship" depart="5.38" departSpeed="max" from="82615215" to="345754189"/>
    <trip id="ship31" type="ship_ship" depart="5.56" departSpeed="max" from="309903995" to="345754189"/>
    <trip id="ship32" type="ship_ship" depart="5.74" departSpeed="max" from="356257025" to="353875142"/>
    <trip id="ship34" type="ship_ship" depart="6.09" departSpeed="max" from="-353879093" to="-309939688"/>
    <trip id="ship36" type="ship_ship" depart="6.45" departSpeed="max" from="356257025" to="-309955227"/>
    <trip id="ship37" type="ship_ship" depart="6.63" departSpeed="max" from="309939688" to="-356257025"/>
    <trip id="ship38" type="ship_ship" depart="6.81" departSpeed="max" from="82615215" to="-82615215"/>
    <trip id="ship39" type="ship_ship" depart="6.99" departSpeed="max" from="-353875142" to="-309939688"/>
    <trip id="ship43" type="ship_ship" depart="7.71" departSpeed="max" from="82615215" to="-82615215"/>
    <trip id="ship44" type="ship_ship" depart="7.89" departSpeed="max" from="-345754189" to="-309900357"/>
    <trip id="ship45" type="ship_ship" depart="8.07" departSpeed="max" from="-345754189" to="309928148"/>
    <trip id="ship46" type="ship_ship" depart="8.25" departSpeed="max" from="309955227" to="-356257025"/>
    <trip id="ship48" type="ship_ship" depart="8.60" departSpeed="max" from="82615215" to="-82615215"/>
    <trip id="ship50" type="ship_ship" depart="8.96" departSpeed="max" from="-309928148" to="345754189"/>
    <trip id="ship54" type="ship_ship" depart="9.68" departSpeed="max" from="-965078020" to="965078020"/>
    <trip id="ship55" type="ship_ship" depart="9.86" departSpeed="max" from="356257025" to="-309939688"/>
    <trip id="ship56" type="ship_ship" depart="10.04" departSpeed="max" from="309900357" to="-309903995"/>
    <trip id="ship59" type="ship_ship" depart="10.58" departSpeed="max" from="309903995" to="-309903995"/>
    <trip id="ship63" type="ship_ship" depart="11.29" departSpeed="max" from="-309928148" to="965078020"/>
    <trip id="ship64" type="ship_ship" depart="11.47" departSpeed="max" from="356257025" to="353879093"/>
    <trip id="ship67" type="ship_ship" depart="12.01" departSpeed="max" from="-309928148" to="-82615215"/>
    <trip id="ship70" type="ship_ship" depart="12.55" departSpeed="max" from="309900357" to="309928148"/>
    <trip id="ship71" type="ship_ship" depart="12.73" departSpeed="max" from="-353875142" to="353879093"/>
    <trip id="ship74" type="ship_ship" depart="13.26" departSpeed="max" from="-353875142" to="-309955227"/>
    <trip id="ship75" type="ship_ship" depart="13.44" departSpeed="max" from="82615215" to="345754189"/>
    <trip id="ship76" type="ship_ship" depart="13.62" departSpeed="max" from="-965078020" to="-82615215"/>
    <trip id="ship79" type="ship_ship" depart="14.16" departSpeed="max" from="-353875142" to="-309939688"/>
    <trip id="ship80" type="ship_ship" depart="14.34" departSpeed="max" from="-309928148" to="309928148"/>
    <trip id="ship81" type="ship_ship" depart="14.52" departSpeed="max" from="-353875142" to="353879093"/>
    <trip id="ship85" type="ship_ship" depart="15.24" departSpeed="max" from="82615215" to="309928148"/>
    <trip id="ship87" type="ship_ship" depart="15.59" departSpeed="max" from="309955227" to="-309939688"/>
    <trip id="ship89" type="ship_ship" depart="15.95" departSpeed="max" from="-965078020" to="-82615215"/>
    <trip id="ship91" type="ship_ship" depart="16.31" departSpeed="max" from="82615215" to="-309903995"/>
    <trip id="ship93" type="ship_ship" depart="16.67" departSpeed="max" from="356257025" to="-309939688"/>
    <trip id="ship94" type="ship_ship" depart="16.85" departSpeed="max" from="-353875142" to="-356257025"/>
    <trip id="ship98" type="ship_ship" depart="17.57" departSpeed="max" from="309903995" to="-309900357"/>
    <trip id="ship100" type="ship_ship" depart="17.92" departSpeed="max" from="82615215" to="965078020"/>
    <trip id="ship103" type="ship_ship" depart="18.46" departSpeed="max" from="-965078020" to="-309900357"/>
    <trip id="ship104" type="ship_ship" depart="18.64" departSpeed="max" from="-965078020" to="965078020"/>
    <trip id="ship105" type="ship_ship" depart="18.82" departSpeed="max" from="-353875142" to="353875142"/>
    <trip id="ship107" type="ship_ship" depart="19.18" departSpeed="max" from="82615215" to="965078020"/>
    <trip id="ship108" type="ship_ship" depart="19.36" departSpeed="max" from="309903995" to="345754189"/>
    <trip id="ship110" type="ship_ship" depart="19.72" departSpeed="max" from="82615215" to="309928148"/>
    <trip id="ship112" type="ship_ship" depart="20.08" departSpeed="max" from="-309928148" to="309928148"/>
    <trip id="ship114" type="ship_ship" depart="20.43" departSpeed="max" from="-345754189" to="965078020"/>
    <trip id="ship116" type="ship_ship" depart="20.79" departSpeed="max" from="309903995" to="345754189"/>
    <trip id="ship118" type="ship_ship" depart="21.15" departSpeed="max" from="356257025" to="-309939688"/>
    <trip id="ship119" type="ship_ship" depart="21.33" departSpeed="max" from="309903995" to="309928148"/>
    <trip id="ship120" type="ship_ship" depart="21.51" departSpeed="max" from="-965078020" to="309928148"/>
    <trip id="ship121" type="ship_ship" depart="21.69" departSpeed="max" from="309900357" to="965078020"/>
    <trip id="ship123" type="ship_ship" depart="22.05" departSpeed="max" from="-353875142" to="-356257025"/>
    <trip id="ship124" type="ship_ship" depart="22.23" departSpeed="max" from="309939688" to="-309955227"/>
    <trip id="ship125" type="ship_ship" depart="22.41" departSpeed="max" from="-353879093" to="353875142"/>
    <trip id="ship126" type="ship_ship" depart="22.58" departSpeed="max" from="-309928148" to="-82615215"/>
    <trip id="ship127" type="ship_ship" depart="22.76" departSpeed="max" from="82615215" to="965078020"/>
    <trip id="ship130" type="ship_ship" depart="23.30" departSpeed="max" from="356257025" to="353879093"/>
    <trip id="ship131" type="ship_ship" depart="23.48" departSpeed="max" from="-965078020" to="-309903995"/>
    <trip id="ship133" type="ship_ship" depart="23.84" departSpeed="max" from="309903995" to="965078020"/>
    <trip id="ship135" type="ship_ship" depart="24.20" departSpeed="max" from="309955227" to="-309955227"/>
    <trip id="ship137" type="ship_ship" depart="24.56" departSpeed="max" from="-345754189" to="-309903995"/>
    <trip id="ship138" type="ship_ship" depart="24.74" departSpeed="max" from="-345754189" to="309928148"/>
    <trip id="ship140" type="ship_ship" depart="25.09" departSpeed="max" from="309939688" to="-309939688"/>
    <trip id="ship146" type="ship_ship" depart="26.17" departSpeed="max" from="309939688" to="-309939688"/>
    <trip id="ship148" type="ship_ship" depart="26.53" departSpeed="max" from="-965078020" to="-309900357"/>
    <trip id="ship152" type="ship_ship" depart="27.24" departSpeed="max" from="-345754189" to="-309903995"/>
    <trip id="ship153" type="ship_ship" depart="27.42" departSpeed="max" from="-353879093" to="353879093"/>
    <trip id="ship154" type="ship_ship" depart="27.60" departSpeed="max" from="309955227" to="353879093"/>
    <trip id="ship155" type="ship_ship" depart="27.78" departSpeed="max" from="356257025" to="-309939688"/>
    <trip id="ship157" type="ship_ship" depart="28.14" departSpeed="max" from="309955227" to="353879093"/>
    <trip id="ship158" type="ship_ship" depart="28.32" departSpeed="max" from="-965078020" to="309928148"/>
    <trip id="ship159" type="ship_ship" depart="28.50" departSpeed="max" from="-345754189" to="965078020"/>
    <trip id="ship161" type="ship_ship" depart="28.86" departSpeed="max" from="309955227" to="353879093"/>
    <trip id="ship164" type="ship_ship" depart="29.40" departSpeed="max" from="309955227" to="353879093"/>
    <trip id="ship165" type="ship_ship" depart="29.57" departSpeed="max" from="309955227" to="-309939688"/>
    <trip id="ship167" type="ship_ship" depart="29.93" departSpeed="max" from="356257025" to="353879093"/>
    <trip id="ship168" type="ship_ship" depart="30.11" departSpeed="max" from="-353875142" to="353875142"/>
    <trip id="ship170" type="ship_ship" depart="30.47" departSpeed="max" from="309955227" to="-309939688"/>
    <trip id="ship172" type="ship_ship" depart="30.83" departSpeed="max" from="-353879093" to="353879093"/>
    <trip id="ship174" type="ship_ship" depart="31.19" departSpeed="max" from="309939688" to="-356257025"/>
    <trip id="ship175" type="ship_ship" depart="31.37" departSpeed="max" from="82615215" to="-82615215"/>
    <trip id="ship176" type="ship_ship" depart="31.55" departSpeed="max" from="82615215" to="-309903995"/>
    <trip id="ship177" type="ship_ship" depart="31.73" departSpeed="max" from="82615215" to="-309903995"/>
    <trip id="ship180" type="ship_ship" depart="32.26" departSpeed="max" from="309955227" to="-309955227"/>
    <trip id="ship181" type="ship_ship" depart="32.44" departSpeed="max" from="309903995" to="-82615215"/>
    <trip id="ship182" type="ship_ship" depart="32.62" departSpeed="max" from="-965078020" to="309928148"/>
    <trip id="ship184" type="ship_ship" depart="32.98" departSpeed="max" from="-309928148" to="965078020"/>
    <trip id="ship185" type="ship_ship" depart="33.16" departSpeed="max" from="309900357" to="345754189"/>
    <trip id="ship187" type="ship_ship" depart="33.52" departSpeed="max" from="-965078020" to="-309900357"/>
    <trip id="ship188" type="ship_ship" depart="33.70" departSpeed="max" from="309939688" to="-309955227"/>
    <trip id="ship189" type="ship_ship" depart="33.88" departSpeed="max" from="-353879093" to="353879093"/>
    <trip id="ship190" type="ship_ship" depart="34.06" departSpeed="max" from="309939688" to="-309955227"/>
    <trip id="ship191" type="ship_ship" depart="34.24" departSpeed="max" from="-353879093" to="-356257025"/>
    <trip id="ship194" type="ship_ship" depart="34.77" departSpeed="max" from="82615215" to="345754189"/>
    <trip id="ship198" type="ship_ship" depart="35.49" departSpeed="max" from="-965078020" to="309928148"/>
    <trip id="ship203" type="ship_ship" depart="36.39" departSpeed="max" from="-309928148" to="-82615215"/>
    <trip id="ship205" type="ship_ship" depart="36.74" departSpeed="max" from="356257025" to="353875142"/>
    <trip id="ship206" type="ship_ship" depart="36.92" departSpeed="max" from="309939688" to="-309939688"/>
    <trip id="ship210" type="ship_ship" depart="37.64" departSpeed="max" from="-965078020" to="309928148"/>
    <trip id="ship214" type="ship_ship" depart="38.36" departSpeed="max" from="309955227" to="353875142"/>
    <trip id="ship216" type="ship_ship" depart="38.72" departSpeed="max" from="-345754189" to="965078020"/>
    <trip id="ship217" type="ship_ship" depart="38.90" departSpeed="max" from="309900357" to="-309900357"/>
    <trip id="ship218" type="ship_ship" depart="39.07" departSpeed="max" from="-353875142" to="353879093"/>
    <trip id="ship221" type="ship_ship" depart="39.61" departSpeed="max" from="309903995" to="965078020"/>
    <trip id="ship225" type="ship_ship" depart="40.33" departSpeed="max" from="356257025" to="353875142"/>
    <trip id="ship231" type="ship_ship" depart="41.40" departSpeed="max" from="-353875142" to="-309955227"/>
    <trip id="ship232" type="ship_ship" depart="41.58" departSpeed="max" from="309900357" to="-309903995"/>
    <trip id="ship235" type="ship_ship" depart="42.12" departSpeed="max" from="-965078020" to="-82615215"/>
    <trip id="ship238" type="ship_ship" depart="42.66" departSpeed="max" from="309903995" to="345754189"/>
    <trip id="ship239" type="ship_ship" depart="42.84" departSpeed="max" from="356257025" to="353875142"/>
    <trip id="ship240" type="ship_ship" depart="43.02" departSpeed="max" from="-965078020" to="-309900357"/>
    <trip id="ship241" type="ship_ship" depart="43.20" departSpeed="max" from="-353879093" to="353875142"/>
    <trip id="ship244" type="ship_ship" depart="43.74" departSpeed="max" from="309903995" to="309928148"/>
    <trip id="ship245" type="ship_ship" depart="43.91" departSpeed="max" from="-353875142" to="-309939688"/>
    <trip id="ship246" type="ship_ship" depart="44.09" departSpeed="max" from="-965078020" to="-309900357"/>
    <trip id="ship248" type="ship_ship" depart="44.45" departSpeed="max" from="-965078020" to="-309903995"/>
    <trip id="ship249" type="ship_ship" depart="44.63" departSpeed="max" from="309900357" to="-309903995"/>
    <trip id="ship250" type="ship_ship" depart="44.81" departSpeed="max" from="309903995" to="-309900357"/>
    <trip id="ship251" type="ship_ship" depart="44.99" departSpeed="max" from="-965078020" to="309928148"/>
    <trip id="ship252" type="ship_ship" depart="45.17" departSpeed="max" from="-309928148" to="345754189"/>
    <trip id="ship253" type="ship_ship" depart="45.35" departSpeed="max" from="-345754189" to="-82615215"/>
    <trip id="ship255" type="ship_ship" depart="45.71" departSpeed="max" from="-353875142" to="-309955227"/>
    <trip id="ship256" type="ship_ship" depart="45.89" departSpeed="max" from="309955227" to="-356257025"/>
    <trip id="ship257" type="ship_ship" depart="46.07" departSpeed="max" from="309955227" to="353879093"/>
    <trip id="ship259" type="ship_ship" depart="46.42" departSpeed="max" from="-309928148" to="-82615215"/>
    <trip id="ship261" type="ship_ship" depart="46.78" departSpeed="max" from="309939688" to="353875142"/>
    <trip id="ship262" type="ship_ship" depart="46.96" departSpeed="max" from="309939688" to="353875142"/>
    <trip id="ship264" type="ship_ship" depart="47.32" departSpeed="max" from="-309928148" to="-309903995"/>
    <trip id="ship265" type="ship_ship" depart="47.50" departSpeed="max" from="-345754189" to="345754189"/>
    <trip id="ship267" type="ship_ship" depart="47.86" departSpeed="max" from="309939688" to="353875142"/>
    <trip id="ship268" type="ship_ship" depart="48.04" departSpeed="max" from="-345754189" to="309928148"/>
    <trip id="ship271" type="ship_ship" depart="48.57" departSpeed="max" from="-345754189" to="-309900357"/>
    <trip id="ship278" type="ship_ship" depart="49.83" departSpeed="max" from="-345754189" to="965078020"/>
    <trip id="ship279" type="ship_ship" depart="50.01" departSpeed="max" from="309955227" to="-309955227"/>
    <trip id="ship282" type="ship_ship" depart="50.55" departSpeed="max" from="356257025" to="353879093"/>
    <trip id="ship283" type="ship_ship" depart="50.73" departSpeed="max" from="-345754189" to="965078020"/>
    <trip id="ship285" type="ship_ship" depart="51.08" departSpeed="max" from="309939688" to="-356257025"/>
    <trip id="ship287" type="ship_ship" depart="51.44" departSpeed="max" from="-353875142" to="353875142"/>
    <trip id="ship288" type="ship_ship" depart="51.62" departSpeed="max" from="309900357" to="-82615215"/>
    <trip id="ship290" type="ship_ship" depart="51.98" departSpeed="max" from="-353875142" to="353879093"/>
    <trip id="ship292" type="ship_ship" depart="52.34" departSpeed="max" from="356257025" to="-309939688"/>
    <trip id="ship293" type="ship_ship" depart="52.52" departSpeed="max" from="309900357" to="309928148"/>
    <trip id="ship294" type="ship_ship" depart="52.70" departSpeed="max" from="-965078020" to="-309900357"/>
    <trip id="ship295" type="ship_ship" depart="52.88" departSpeed="max" from="356257025" to="-309939688"/>
    <trip id="ship296" type="ship_ship" depart="53.06" departSpeed="max" from="-353875142" to="353875142"/>
    <trip id="ship297" type="ship_ship" depart="53.23" departSpeed="max" from="-353879093" to="353879093"/>
    <trip id="ship298" type="ship_ship" depart="53.41" departSpeed="max" from="309939688" to="-309955227"/>
    <trip id="ship299" type="ship_ship" depart="53.59" departSpeed="max" from="-309928148" to="965078020"/>
    <trip id="ship300" type="ship_ship" depart="53.77" departSpeed="max" from="-309928148" to="345754189"/>
    <trip id="ship305" type="ship_ship" depart="54.67" departSpeed="max" from="309939688" to="-309955227"/>
    <trip id="ship306" type="ship_ship" depart="54.85" departSpeed="max" from="309903995" to="-82615215"/>
    <trip id="ship308" type="ship_ship" depart="55.21" departSpeed="max" from="309955227" to="-309955227"/>
    <trip id="ship309" type="ship_ship" depart="55.39" departSpeed="max" from="309939688" to="-309939688"/>
    <trip id="ship313" type="ship_ship" depart="56.10" departSpeed="max" from="-353875142" to="-309939688"/>
    <trip id="ship314" type="ship_ship" depart="56.28" departSpeed="max" from="309900357" to="345754189"/>
    <trip id="ship315" type="ship_ship" depart="56.46" departSpeed="max" from="82615215" to="-82615215"/>
    <trip id="ship317" type="ship_ship" depart="56.82" departSpeed="max" from="-353875142" to="-309939688"/>
    <trip id="ship318" type="ship_ship" depart="57.00" departSpeed="max" from="-345754189" to="-309900357"/>
    <trip id="ship320" type="ship_ship" depart="57.36" departSpeed="max" from="82615215" to="309928148"/>
    <trip id="ship326" type="ship_ship" depart="58.43" departSpeed="max" from="82615215" to="-82615215"/>
    <trip id="ship327" type="ship_ship" depart="58.61" departSpeed="max" from="356257025" to="-356257025"/>
    <trip id="ship328" type="ship_ship" depart="58.79" departSpeed="max" from="-309928148" to="309928148"/>
    <trip id="ship329" type="ship_ship" depart="58.97" departSpeed="max" from="-309928148" to="-309903995"/>
    <trip id="ship331" type="ship_ship" depart="59.33" departSpeed="max" from="82615215" to="-309903995"/>
    <trip id="ship333" type="ship_ship" depart="59.69" departSpeed="max" from="309955227" to="-309939688"/>
    <trip id="ship337" type="ship_ship" depart="60.40" departSpeed="max" from="309903995" to="309928148"/>
    <trip id="ship339" type="ship_ship" depart="60.76" departSpeed="max" from="-353875142" to="-309939688"/>
    <trip id="ship341" type="ship_ship" depart="61.12" departSpeed="max" from="-345754189" to="-309900357"/>
    <trip id="ship345" type="ship_ship" depart="61.84" departSpeed="max" from="309939688" to="-356257025"/>
    <trip id="ship349" type="ship_ship" depart="62.56" departSpeed="max" from="-965078020" to="-82615215"/>
    <trip id="ship350" type="ship_ship" depart="62.73" departSpeed="max" from="309939688" to="353879093"/>
    <trip id="ship356" type="ship_ship" depart="63.81" departSpeed="max" from="82615215" to="-82615215"/>
    <trip id="ship357" type="ship_ship" depart="63.99" departSpeed="max" from="309900357" to="-309900357"/>
    <trip id="ship359" type="ship_ship" depart="64.35" departSpeed="max" from="-353879093" to="-309939688"/>
    <trip id="ship360" type="ship_ship" depart="64.53" departSpeed="max" from="-345754189" to="965078020"/>
    <trip id="ship362" type="ship_ship" depart="64.89" departSpeed="max" from="82615215" to="965078020"/>
    <trip id="ship363" type="ship_ship" depart="65.06" departSpeed="max" from="309939688" to="-309939688"/>
    <trip id="ship365" type="ship_ship" depart="65.42" departSpeed="max" from="309900357" to="345754189"/>
    <trip id="ship366" type="ship_ship" depart="65.60" departSpeed="max" from="82615215" to="-309903995"/>
    <trip id="ship367" type="ship_ship" depart="65.78" departSpeed="max" from="309903995" to="309928148"/>
    <trip id="ship368" type="ship_ship" depart="65.96" departSpeed="max" from="309900357" to="-309903995"/>
    <trip id="ship369" type="ship_ship" depart="66.14" departSpeed="max" from="-353879093" to="-309955227"/>
    <trip id="ship370" type="ship_ship" depart="66.32" departSpeed="max" from="309939688" to="353879093"/>
    <trip id="ship376" type="ship_ship" depart="67.39" departSpeed="max" from="-965078020" to="-82615215"/>
    <trip id="ship377" type="ship_ship" depart="67.57" departSpeed="max" from="82615215" to="345754189"/>
    <trip id="ship379" type="ship_ship" depart="67.93" departSpeed="max" from="-353875142" to="-309955227"/>
    <trip id="ship381" type="ship_ship" depart="68.29" departSpeed="max" from="309955227" to="-309939688"/>
    <trip id="ship382" type="ship_ship" depart="68.47" departSpeed="max" from="309903995" to="965078020"/>
    <trip id="ship383" type="ship_ship" depart="68.65" departSpeed="max" from="-965078020" to="345754189"/>
    <trip id="ship384" type="ship_ship" depart="68.83" departSpeed="max" from="-345754189" to="965078020"/>
    <trip id="ship386" type="ship_ship" depart="69.19" departSpeed="max" from="-345754189" to="309928148"/>
    <trip id="ship387" type="ship_ship" depart="69.37" departSpeed="max" from="309903995" to="-309903995"/>
    <trip id="ship388" type="ship_ship" depart="69.55" departSpeed="max" from="82615215" to="965078020"/>
    <trip id="ship389" type="ship_ship" depart="69.73" departSpeed="max" from="309900357" to="-309903995"/>
    <trip id="ship392" type="ship_ship" depart="70.26" departSpeed="max" from="-353879093" to="353879093"/>
    <trip id="ship395" type="ship_ship" depart="70.80" departSpeed="max" from="82615215" to="-82615215"/>
    <trip id="ship396" type="ship_ship" depart="70.98" departSpeed="max" from="356257025" to="353879093"/>
    <trip id="ship397" type="ship_ship" depart="71.16" departSpeed="max" from="-353879093" to="353875142"/>
    <trip id="ship398" type="ship_ship" depart="71.34" departSpeed="max" from="-965078020" to="965078020"/>
    <trip id="ship400" type="ship_ship" depart="71.70" departSpeed="max" from="-353879093" to="-309955227"/>
    <trip id="ship401" type="ship_ship" depart="71.88" departSpeed="max" from="309903995" to="965078020"/>
    <trip id="ship402" type="ship_ship" depart="72.06" departSpeed="max" from="309900357" to="-309903995"/>
    <trip id="ship404" type="ship_ship" depart="72.41" departSpeed="max" from="309903995" to="-82615215"/>
    <trip id="ship410" type="ship_ship" depart="73.49" departSpeed="max" from="309955227" to="-356257025"/>
    <trip id="ship411" type="ship_ship" depart="73.67" departSpeed="max" from="309939688" to="353879093"/>
    <trip id="ship412" type="ship_ship" depart="73.85" departSpeed="max" from="82615215" to="-82615215"/>
    <trip id="ship413" type="ship_ship" depart="74.03" departSpeed="max" from="-309928148" to="-82615215"/>
    <trip id="ship415" type="ship_ship" depart="74.39" departSpeed="max" from="356257025" to="-356257025"/>
    <trip id="ship416" type="ship_ship" depart="74.56" departSpeed="max" from="309900357" to="-82615215"/>
    <trip id="ship417" type="ship_ship" depart="74.74" departSpeed="max" from="309939688" to="-356257025"/>
    <trip id="ship419" type="ship_ship" depart="75.10" departSpeed="max" from="309900357" to="965078020"/>
    <trip id="ship421" type="ship_ship" depart="75.46" departSpeed="max" from="309939688" to="353879093"/>
    <trip id="ship422" type="ship_ship" depart="75.64" departSpeed="max" from="356257025" to="353879093"/>
    <trip id="ship424" type="ship_ship" depart="76.00" departSpeed="max" from="309939688" to="353875142"/>
    <trip id="ship426" type="ship_ship" depart="76.36" departSpeed="max" from="-309928148" to="309928148"/>
    <trip id="ship427" type="ship_ship" depart="76.54" departSpeed="max" from="82615215" to="965078020"/>
    <trip id="ship428" type="ship_ship" depart="76.72" departSpeed="max" from="309955227" to="-356257025"/>
    <trip id="ship429" type="ship_ship" depart="76.89" departSpeed="max" from="-345754189" to="309928148"/>
    <trip id="ship430" type="ship_ship" depart="77.07" departSpeed="max" from="356257025" to="-356257025"/>
    <trip id="ship431" type="ship_ship" depart="77.25" departSpeed="max" from="309939688" to="353879093"/>
    <trip id="ship433" type="ship_ship" depart="77.61" departSpeed="max" from="-353879093" to="-356257025"/>
    <trip id="ship434" type="ship_ship" depart="77.79" departSpeed="max" from="-345754189" to="-82615215"/>
    <trip id="ship436" type="ship_ship" depart="78.15" departSpeed="max" from="-345754189" to="-309900357"/>
    <trip id="ship439" type="ship_ship" depart="78.69" departSpeed="max" from="-345754189" to="-82615215"/>
    <trip id="ship440" type="ship_ship" depart="78.87" departSpeed="max" from="-353875142" to="-309939688"/>
    <trip id="ship445" type="ship_ship" depart="79.76" departSpeed="max" from="309939688" to="-356257025"/>
    <trip id="ship446" type="ship_ship" depart="79.94" departSpeed="max" from="-353875142" to="353879093"/>
    <trip id="ship447" type="ship_ship" depart="80.12" departSpeed="max" from="-353875142" to="-356257025"/>
    <trip id="ship449" type="ship_ship" depart="80.48" departSpeed="max" from="309903995" to="309928148"/>
    <trip id="ship451" type="ship_ship" depart="80.84" departSpeed="max" from="82615215" to="345754189"/>
    <trip id="ship453" type="ship_ship" depart="81.20" departSpeed="max" from="309939688" to="353875142"/>
    <trip id="ship454" type="ship_ship" depart="81.38" departSpeed="max" from="-309928148" to="309928148"/>
    <trip id="ship456" type="ship_ship" depart="81.73" departSpeed="max" from="-353879093" to="353875142"/>
    <trip id="ship460" type="ship_ship" depart="82.45" departSpeed="max" from="309939688" to="353879093"/>
    <trip id="ship462" type="ship_ship" depart="82.81" departSpeed="max" from="309939688" to="-309955227"/>
    <trip id="ship463" type="ship_ship" depart="82.99" departSpeed="max" from="-965078020" to="309928148"/>
    <trip id="ship465" type="ship_ship" depart="83.35" departSpeed="max" from="-353879093" to="353875142"/>
    <trip id="ship466" type="ship_ship" depart="83.53" departSpeed="max" from="-345754189" to="-309903995"/>
    <trip id="ship467" type="ship_ship" depart="83.71" departSpeed="max" from="309900357" to="965078020"/>
    <trip id="ship468" type="ship_ship" depart="83.89" departSpeed="max" from="309900357" to="965078020"/>
    <trip id="ship469" type="ship_ship" depart="84.06" departSpeed="max" from="356257025" to="-309939688"/>
    <trip id="ship471" type="ship_ship" depart="84.42" departSpeed="max" from="309955227" to="353875142"/>
    <trip id="ship473" type="ship_ship" depart="84.78" departSpeed="max" from="82615215" to="-309903995"/>
    <trip id="ship478" type="ship_ship" depart="85.68" departSpeed="max" from="-309928148" to="-82615215"/>
    <trip id="ship479" type="ship_ship" depart="85.86" departSpeed="max" from="309900357" to="345754189"/>
    <trip id="ship484" type="ship_ship" depart="86.75" departSpeed="max" from="309903995" to="965078020"/>
    <trip id="ship487" type="ship_ship" depart="87.29" departSpeed="max" from="-353879093" to="-356257025"/>
    <trip id="ship488" type="ship_ship" depart="87.47" departSpeed="max" from="-345754189" to="965078020"/>
    <trip id="ship492" type="ship_ship" depart="88.19" departSpeed="max" from="309939688" to="353875142"/>
    <trip id="ship495" type="ship_ship" depart="88.72" departSpeed="max" from="-965078020" to="-309903995"/>
    <trip id="ship497" type="ship_ship" depart="89.08" departSpeed="max" from="82615215" to="-309900357"/>
    <trip id="ship500" type="ship_ship" depart="89.62" departSpeed="max" from="-345754189" to="345754189"/>
    <trip id="ship501" type="ship_ship" depart="89.80" departSpeed="max" from="309900357" to="965078020"/>
    <trip id="ship502" type="ship_ship" depart="89.98" departSpeed="max" from="-353879093" to="-356257025"/>
    <trip id="ship506" type="ship_ship" depart="90.70" departSpeed="max" from="309903995" to="-309900357"/>
    <trip id="ship507" type="ship_ship" depart="90.88" departSpeed="max" from="309955227" to="-309939688"/>
    <trip id="ship508" type="ship_ship" depart="91.05" departSpeed="max" from="-345754189" to="309928148"/>
    <trip id="ship510" type="ship_ship" depart="91.41" departSpeed="max" from="-353875142" to="-309939688"/>
    <trip id="ship511" type="ship_ship" depart="91.59" departSpeed="max" from="356257025" to="-309955227"/>
    <trip id="ship514" type="ship_ship" depart="92.13" departSpeed="max" from="-345754189" to="-309903995"/>