<?xml version="1.0" encoding="UTF-8"?>
<!-- generated on 2021-11-01 11:35:06.553033 by $Id$ v1_10_0+0000-83496a5972
  options: 
-->
<routes xmlns:xsi="http://www.w3.org/2001/XMLSchema-instance" xsi:noNamespaceSchemaLocation="http://sumo.dlr.de/xsd/routes_file.xsd">
    <vType id="ped_pedestrian" vClass="pedestrian"/>
    <person id="ped0" depart="0.00" type="ped_pedestrian">
        <personTrip from="766520484#0" to="-295215797#1" modes="public"/>
    </person>
    <person id="ped1" depart="0.33" type="ped_pedestrian">
        <personTrip from="309189479" to="239117584#0" modes="public"/>
    </person>
    <person id="ped2" depart="0.66" type="ped_pedestrian">
        <personTrip from="886633761#0" to="789706444#0" modes="public"/>
    </person>
    <person id="ped3" depart="1.00" type="ped_pedestrian">
        <personTrip from="911389016#4" to="126336713#1" modes="public"/>
    </person>
    <person id="ped4" depart="1.33" type="ped_pedestrian">
        <personTrip from="4809722#1" to="-359735825#0" modes="public"/>
    </person>
    <person id="ped5" depart="1.66" type="ped_pedestrian">
        <personTrip from="237649292#1" to="746391177#0" modes="public"/>
    </person>
    <person id="ped6" depart="1.99" type="ped_pedestrian">
        <personTrip from="-295215808#5" to="210285909#2" modes="public"/>
    </person>
    <person id="ped7" depart="2.32" type="ped_pedestrian">
        <personTrip from="766520539#4" to="753508668#1" modes="public"/>
    </person>
    <person id="ped8" depart="2.66" type="ped_pedestrian">
        <personTrip from="237994920#1" to="753601776#0" modes="public"/>
    </person>
    <person id="ped9" depart="2.99" type="ped_pedestrian">
        <personTrip from="893832400#3" to="-126725972#0" modes="public"/>
    </person>
    <person id="ped10" depart="3.32" type="ped_pedestrian">
        <personTrip from="893832395#1" to="83711428#2" modes="public"/>
    </person>
    <person id="ped11" depart="3.65" type="ped_pedestrian">
        <personTrip from="417576459#0" to="126807844#0" modes="public"/>
    </person>
    <person id="ped12" depart="3.99" type="ped_pedestrian">
        <personTrip from="970862995" to="416454322#2" modes="public"/>
    </person>
    <person id="ped13" depart="4.32" type="ped_pedestrian">
        <personTrip from="126336728#1" to="126397527#3" modes="public"/>
    </person>
    <person id="ped14" depart="4.65" type="ped_pedestrian">
        <personTrip from="893988157" to="753708198#1" modes="public"/>
    </person>
    <person id="ped15" depart="4.98" type="ped_pedestrian">
        <personTrip from="893832395#7" to="886633743#1" modes="public"/>
    </person>
    <person id="ped16" depart="5.31" type="ped_pedestrian">
        <personTrip from="753439994#2" to="970882888" modes="public"/>
    </person>
    <person id="ped17" depart="5.65" type="ped_pedestrian">
        <personTrip from="4743364" to="753508685#0" modes="public"/>
    </person>
    <person id="ped18" depart="5.98" type="ped_pedestrian">
        <personTrip from="893921397#0" to="753752138#0" modes="public"/>
    </person>
    <person id="ped19" depart="6.31" type="ped_pedestrian">
        <personTrip from="895747518" to="753601748#1" modes="public"/>
    </person>
    <person id="ped20" depart="6.64" type="ped_pedestrian">
        <personTrip from="880513897#5" to="-498952134" modes="public"/>
    </person>
    <person id="ped21" depart="6.97" type="ped_pedestrian">
        <personTrip from="243093274" to="342792627#1" modes="public"/>
    </person>
    <person id="ped22" depart="7.31" type="ped_pedestrian">
        <personTrip from="126336685#6" to="246640824#2" modes="public"/>
    </person>
    <person id="ped23" depart="7.64" type="ped_pedestrian">
        <personTrip from="126426430#1" to="315441162#1" modes="public"/>
    </person>
    <person id="ped24" depart="7.97" type="ped_pedestrian">
        <personTrip from="76168863#9" to="457712223#2" modes="public"/>
    </person>
    <person id="ped25" depart="8.30" type="ped_pedestrian">
        <personTrip from="457712232#5" to="231284639#1" modes="public"/>
    </person>
    <person id="ped26" depart="8.64" type="ped_pedestrian">
        <personTrip from="295215803#8" to="970754114#0" modes="public"/>
    </person>
    <person id="ped27" depart="8.97" type="ped_pedestrian">
        <personTrip from="766520535#1" to="753730061#0" modes="public"/>
    </person>
    <person id="ped28" depart="9.30" type="ped_pedestrian">
        <personTrip from="16367702#2" to="886633742#0" modes="public"/>
    </person>
    <person id="ped29" depart="9.63" type="ped_pedestrian">
        <personTrip from="136363076#8" to="4743368#1" modes="public"/>
    </person>
    <person id="ped30" depart="9.96" type="ped_pedestrian">
        <personTrip from="970910299#1" to="766520485#0" modes="public"/>
    </person>
    <person id="ped31" depart="10.30" type="ped_pedestrian">
        <personTrip from="753508696#1" to="789706459" modes="public"/>
    </person>
    <person id="ped32" depart="10.63" type="ped_pedestrian">
        <personTrip from="893954151" to="886813234#0" modes="public"/>
    </person>
    <person id="ped33" depart="10.96" type="ped_pedestrian">
        <personTrip from="245672931#0" to="-4079500#1" modes="public"/>
    </person>
    <person id="ped34" depart="11.29" type="ped_pedestrian">
        <personTrip from="4079505#17" to="295215808#4" modes="public"/>
    </person>
    <person id="ped35" depart="11.62" type="ped_pedestrian">
        <personTrip from="235508887#1" to="970862921" modes="public"/>
    </person>
    <person id="ped36" depart="11.96" type="ped_pedestrian">
        <personTrip from="906750214" to="4079505#13" modes="public"/>
    </person>
    <person id="ped37" depart="12.29" type="ped_pedestrian">
        <personTrip from="766520551#0" to="4746863#0" modes="public"/>
    </person>
    <person id="ped38" depart="12.62" type="ped_pedestrian">
        <personTrip from="970216156#1" to="553305787#7" modes="public"/>
    </person>
    <person id="ped39" depart="12.95" type="ped_pedestrian">
        <personTrip from="295215798#2" to="280405225#3" modes="public"/>
    </person>
    <person id="ped40" depart="13.28" type="ped_pedestrian">
        <personTrip from="753508706#1" to="294871189" modes="public"/>
    </person>
    <person id="ped41" depart="13.62" type="ped_pedestrian">
        <personTrip from="753601765#1" to="911461596#2" modes="public"/>
    </person>
    <person id="ped42" depart="13.95" type="ped_pedestrian">
        <personTrip from="4746867#4" to="237649293#3" modes="public"/>
    </person>
    <person id="ped43" depart="14.28" type="ped_pedestrian">
        <personTrip from="978362136" to="746391186#1" modes="public"/>
    </person>
    <person id="ped44" depart="14.61" type="ped_pedestrian">
        <personTrip from="126336724#1" to="-502812532#1" modes="public"/>
    </person>
    <person id="ped45" depart="14.95" type="ped_pedestrian">
        <personTrip from="126442798#4" to="753752156#1" modes="public"/>
    </person>
    <person id="ped46" depart="15.28" type="ped_pedestrian">
        <personTrip from="887689210#1" to="4809722#2" modes="public"/>
    </person>
    <person id="ped47" depart="15.61" type="ped_pedestrian">
        <personTrip from="10851731#9" to="4743458#1" modes="public"/>
    </person>
    <person id="ped48" depart="15.94" type="ped_pedestrian">
        <personTrip from="97723306#0" to="746391230#0" modes="public"/>
    </person>
    <person id="ped49" depart="16.27" type="ped_pedestrian">
        <personTrip from="970882879" to="895304297#1" modes="public"/>
    </person>
    <person id="ped50" depart="16.61" type="ped_pedestrian">
        <personTrip from="-126754498#3" to="886623701#0" modes="public"/>
    </person>
    <person id="ped51" depart="16.94" type="ped_pedestrian">
        <personTrip from="789706452" to="753439995#1" modes="public"/>
    </person>
    <person id="ped52" depart="17.27" type="ped_pedestrian">
        <personTrip from="295215803#8" to="766520487#1" modes="public"/>
    </person>
    <person id="ped53" depart="17.60" type="ped_pedestrian">
        <personTrip from="126442802#4" to="502812530#0" modes="public"/>
    </person>
    <person id="ped54" depart="17.93" type="ped_pedestrian">
        <personTrip from="549342033" to="970862979" modes="public"/>
    </person>
    <person id="ped55" depart="18.27" type="ped_pedestrian">
        <personTrip from="906395262#0" to="294872798#3" modes="public"/>
    </person>
    <person id="ped56" depart="18.60" type="ped_pedestrian">
        <personTrip from="746391166#0" to="18506057" modes="public"/>
    </person>
    <person id="ped57" depart="18.93" type="ped_pedestrian">
        <personTrip from="9412957#3" to="897318846#1" modes="public"/>
    </person>
    <person id="ped58" depart="19.26" type="ped_pedestrian">
        <personTrip from="359739471#3" to="766520481#1" modes="public"/>
    </person>
    <person id="ped59" depart="19.60" type="ped_pedestrian">
        <personTrip from="753730060#1" to="126807840#1" modes="public"/>
    </person>
    <person id="ped60" depart="19.93" type="ped_pedestrian">
        <personTrip from="886811587#6" to="753439998#7" modes="public"/>
    </person>
    <person id="ped61" depart="20.26" type="ped_pedestrian">
        <personTrip from="886813237#3" to="746391233#0" modes="public"/>
    </person>
    <person id="ped62" depart="20.59" type="ped_pedestrian">
        <personTrip from="-10851867#3" to="4079513#2" modes="public"/>
    </person>
    <person id="ped63" depart="20.92" type="ped_pedestrian">
        <personTrip from="-216972168" to="970754067#1" modes="public"/>
    </person>
    <person id="ped64" depart="21.26" type="ped_pedestrian">
        <personTrip from="907164225#1" to="893945966" modes="public"/>
    </person>
    <person id="ped65" depart="21.59" type="ped_pedestrian">
        <personTrip from="370605628" to="-987367175" modes="public"/>
    </person>
    <person id="ped66" depart="21.92" type="ped_pedestrian">
        <personTrip from="907164224#4" to="970862937" modes="public"/>
    </person>
    <person id="ped67" depart="22.25" type="ped_pedestrian">
        <personTrip from="126336710#1" to="74074065#6" modes="public"/>
    </person>
    <person id="ped68" depart="22.58" type="ped_pedestrian">
        <personTrip from="114574157#1" to="886811584#2" modes="public"/>
    </person>
    <person id="ped69" depart="22.92" type="ped_pedestrian">
        <personTrip from="886811590#0" to="126732604#2" modes="public"/>
    </person>
    <person id="ped70" depart="23.25" type="ped_pedestrian">
        <personTrip from="62213293#4" to="753508679#1" modes="public"/>
    </person>
    <person id="ped71" depart="23.58" type="ped_pedestrian">
        <personTrip from="295215798#3" to="902208621#2" modes="public"/>
    </person>
    <person id="ped72" depart="23.91" type="ped_pedestrian">
        <personTrip from="4809724#1" to="235508887#4" modes="public"/>
    </person>
    <person id="ped73" depart="24.24" type="ped_pedestrian">
        <personTrip from="753439998#7" to="886633743#2" modes="public"/>
    </person>
    <person id="ped74" depart="24.58" type="ped_pedestrian">
        <personTrip from="210285911#1" to="388782112#1" modes="public"/>
    </person>
    <person id="ped75" depart="24.91" type="ped_pedestrian">
        <personTrip from="970910325#2" to="766520539#4" modes="public"/>
    </person>
    <person id="ped76" depart="25.24" type="ped_pedestrian">
        <personTrip from="502813025#0" to="746391204#1" modes="public"/>
    </person>
    <person id="ped77" depart="25.57" type="ped_pedestrian">
        <personTrip from="126449085#3" to="239838074#5" modes="public"/>
    </person>
    <person id="ped78" depart="25.91" type="ped_pedestrian">
        <personTrip from="417363329" to="753601774#0" modes="public"/>
    </person>
    <person id="ped79" depart="26.24" type="ped_pedestrian">
        <personTrip from="246630085#2" to="237994920#0" modes="public"/>
    </person>
    <person id="ped80" depart="26.57" type="ped_pedestrian">
        <personTrip from="125735929" to="753752162#2" modes="public"/>
    </person>
    <person id="ped81" depart="26.90" type="ped_pedestrian">
        <personTrip from="245672931#0" to="914739728#1" modes="public"/>
    </person>
    <person id="ped82" depart="27.23" type="ped_pedestrian">
        <personTrip from="895304296#0" to="125734391" modes="public"/>
    </person>
    <person id="ped83" depart="27.57" type="ped_pedestrian">
        <personTrip from="249408855#21" to="785372922#0" modes="public"/>
    </person>
    <person id="ped84" depart="27.90" type="ped_pedestrian">
        <personTrip from="235747866" to="126734919#0" modes="public"/>
    </person>
    <person id="ped85" depart="28.23" type="ped_pedestrian">
        <personTrip from="970754110#1" to="753508765#1" modes="public"/>
    </person>
    <person id="ped86" depart="28.56" type="ped_pedestrian">
        <personTrip from="61942879#0" to="886815092#0" modes="public"/>
    </person>
    <person id="ped87" depart="28.89" type="ped_pedestrian">
        <personTrip from="893832396#0" to="18833123#2" modes="public"/>
    </person>
    <person id="ped88" depart="29.23" type="ped_pedestrian">
        <personTrip from="126397534" to="48174566#0" modes="public"/>
    </person>
    <person id="ped89" depart="29.56" type="ped_pedestrian">
        <personTrip from="4809724#3" to="569418538" modes="public"/>
    </person>
    <person id="ped90" depart="29.89" type="ped_pedestrian">
        <personTrip from="886633742#0" to="789706436#2" modes="public"/>
    </person>
    <person id="ped91" depart="30.22" type="ped_pedestrian">
        <personTrip from="970910280#2" to="126399551#0" modes="public"/>
    </person>
    <person id="ped92" depart="30.55" type="ped_pedestrian">
        <personTrip from="4750617#1" to="417398867" modes="public"/>
    </person>
    <person id="ped93" depart="30.89" type="ped_pedestrian">
        <personTrip from="895304299" to="280407888#0" modes="public"/>
    </person>
    <person id="ped94" depart="31.22" type="ped_pedestrian">
        <personTrip from="18833123#1" to="54754611#0" modes="public"/>
    </person>
    <person id="ped95" depart="31.55" type="ped_pedestrian">
        <personTrip from="4809722#0" to="315441162#3" modes="public"/>
    </person>
    <person id="ped96" depart="31.88" type="ped_pedestrian">
        <personTrip from="280408172" to="970456889" modes="public"/>
    </person>
    <person id="ped97" depart="32.22" type="ped_pedestrian">
        <personTrip from="545931995" to="895304298#1" modes="public"/>
    </person>
    <person id="ped98" depart="32.55" type="ped_pedestrian">
        <personTrip from="753508680#1" to="-553309963#1" modes="public"/>
    </person>
    <person id="ped99" depart="32.88" type="ped_pedestrian">
        <personTrip from="995580745" to="893945983#1" modes="public"/>
    </person>
    <person id="ped100" depart="33.21" type="ped_pedestrian">
        <personTrip from="970882869" to="970754056" modes="public"/>
    </person>
    <person id="ped101" depart="33.54" type="ped_pedestrian">
        <personTrip from="893988161" to="140898448" modes="public"/>
    </person>
    <person id="ped102" depart="33.88" type="ped_pedestrian">
        <personTrip from="74074065#5" to="235513049#8" modes="public"/>
    </person>
    <person id="ped103" depart="34.21" type="ped_pedestrian">
        <personTrip from="4747016#0" to="10426329#0" modes="public"/>
    </person>
    <person id="ped104" depart="34.54" type="ped_pedestrian">
        <personTrip from="4743366#0" to="970910284#1" modes="public"/>
    </person>
    <person id="ped105" depart="34.87" type="ped_pedestrian">
        <personTrip from="295215798#3" to="886815091#0" modes="public"/>
    </person>
    <person id="ped106" depart="35.20" type="ped_pedestrian">
        <personTrip from="550734720" to="4809724#1" modes="public"/>
    </person>
    <person id="ped107" depart="35.54" type="ped_pedestrian">
        <personTrip from="970862996" to="971030798" modes="public"/>
    </person>
    <person id="ped108" depart="35.87" type="ped_pedestrian">
        <personTrip from="753508693#1" to="886623695" modes="public"/>
    </person>
    <person id="ped109" depart="36.20" type="ped_pedestrian">
        <personTrip from="126807842#8" to="359739471#22" modes="public"/>
    </person>
    <person id="ped110" depart="36.53" type="ped_pedestrian">
        <personTrip from="970882868" to="753601752#1" modes="public"/>
    </person>
    <person id="ped111" depart="36.87" type="ped_pedestrian">
        <personTrip from="753508659" to="886806848#0" modes="public"/>
    </person>
    <person id="ped112" depart="37.20" type="ped_pedestrian">
        <personTrip from="-920602947#9" to="753601764#1" modes="public"/>
    </person>
    <person id="ped113" depart="37.53" type="ped_pedestrian">
        <personTrip from="746391171#1" to="895024281" modes="public"/>
    </person>
    <person id="ped114" depart="37.86" type="ped_pedestrian">
        <personTrip from="126807848#1" to="970882834" modes="public"/>
    </person>
    <person id="ped115" depart="38.19" type="ped_pedestrian">
        <personTrip from="126336685#8" to="18618300#4" modes="public"/>
    </person>
    <person id="ped116" depart="38.53" type="ped_pedestrian">
        <personTrip from="753601789#0" to="789706440#1" modes="public"/>
    </person>
    <person id="ped117" depart="38.86" type="ped_pedestrian">
        <personTrip from="249408854#1" to="126444400#1" modes="public"/>
    </person>
    <person id="ped118" depart="39.19" type="ped_pedestrian">
        <personTrip from="911389016#11" to="280405225#1" modes="public"/>
    </person>
    <person id="ped119" depart="39.52" type="ped_pedestrian">
        <personTrip from="753601788#0" to="753752140#0" modes="public"/>
    </person>
    <person id="ped120" depart="39.85" type="ped_pedestrian">
        <personTrip from="4785424#1" to="753601763#1" modes="public"/>
    </person>
    <person id="ped121" depart="40.19" type="ped_pedestrian">
        <personTrip from="746391216#1" to="970754095#0" modes="public"/>
    </person>
    <person id="ped122" depart="40.52" type="ped_pedestrian">
        <personTrip from="217108058#0" to="881322847#0" modes="public"/>
    </person>
    <person id="ped123" depart="40.85" type="ped_pedestrian">
        <personTrip from="249408855#6" to="4746863#1" modes="public"/>
    </person>
    <person id="ped124" depart="41.18" type="ped_pedestrian">
        <personTrip from="789706434#0" to="359739471#6" modes="public"/>
    </person>
    <person id="ped125" depart="41.51" type="ped_pedestrian">
        <personTrip from="4079505#2" to="886806854#2" modes="public"/>
    </person>
    <person id="ped126" depart="41.85" type="ped_pedestrian">
        <personTrip from="126328434#1" to="553305786#0" modes="public"/>
    </person>
    <person id="ped127" depart="42.18" type="ped_pedestrian">
        <personTrip from="982214069" to="97723306#0" modes="public"/>
    </person>
    <person id="ped128" depart="42.51" type="ped_pedestrian">
        <personTrip from="126328435#0" to="235513049#6" modes="public"/>
    </person>
    <person id="ped129" depart="42.84" type="ped_pedestrian">
        <personTrip from="295215798#3" to="970754093#0" modes="public"/>
    </person>
    <person id="ped130" depart="43.18" type="ped_pedestrian">
        <personTrip from="907164228" to="907164225#3" modes="public"/>
    </person>
    <person id="ped131" depart="43.51" type="ped_pedestrian">
        <personTrip from="457712232#0" to="126808394#2" modes="public"/>
    </person>
    <person id="ped132" depart="43.84" type="ped_pedestrian">
        <personTrip from="893945976" to="880513895#6" modes="public"/>
    </person>
    <person id="ped133" depart="44.17" type="ped_pedestrian">
        <personTrip from="753730067#0" to="970910290" modes="public"/>
    </person>
    <person id="ped134" depart="44.50" type="ped_pedestrian">
        <personTrip from="766520547#3" to="-126727836#1" modes="public"/>
    </person>
    <person id="ped135" depart="44.84" type="ped_pedestrian">
        <personTrip from="893832411#1" to="359739471#33" modes="public"/>
    </person>
    <person id="ped136" depart="45.17" type="ped_pedestrian">
        <personTrip from="777186745#5" to="970755101#2" modes="public"/>
    </person>
    <person id="ped137" depart="45.50" type="ped_pedestrian">
        <personTrip from="126754108#1" to="126442811#0" modes="public"/>
    </person>
    <person id="ped138" depart="45.83" type="ped_pedestrian">
        <personTrip from="126426469" to="753508687#1" modes="public"/>
    </person>
    <person id="ped139" depart="46.16" type="ped_pedestrian">
        <personTrip from="305108027#0" to="753708200#2" modes="public"/>
    </person>
    <person id="ped140" depart="46.50" type="ped_pedestrian">
        <personTrip from="881322850#3" to="217108056#0" modes="public"/>
    </person>
    <person id="ped141" depart="46.83" type="ped_pedestrian">
        <personTrip from="755455135#1" to="295215797#1" modes="public"/>
    </person>
    <person id="ped142" depart="47.16" type="ped_pedestrian">
        <personTrip from="746383956#1" to="914739728#1" modes="public"/>
    </person>
    <person id="ped143" depart="47.49" type="ped_pedestrian">
        <personTrip from="893954160#2" to="126336727#2" modes="public"/>
    </person>
    <person id="ped144" depart="47.83" type="ped_pedestrian">
        <personTrip from="4809724#3" to="314839726#0" modes="public"/>
    </person>
    <person id="ped145" depart="48.16" type="ped_pedestrian">
        <personTrip from="-126453487#1" to="886813226#1" modes="public"/>
    </person>
    <person id="ped146" depart="48.49" type="ped_pedestrian">
        <personTrip from="76172459#2" to="294123479#1" modes="public"/>
    </person>
    <person id="ped147" depart="48.82" type="ped_pedestrian">
        <personTrip from="886633774" to="753508684#0" modes="public"/>
    </person>
    <person id="ped148" depart="49.15" type="ped_pedestrian">
        <personTrip from="4809737#0" to="-126732607#0" modes="public"/>
    </person>
    <person id="ped149" depart="49.49" type="ped_pedestrian">
        <personTrip from="126334601#4" to="907164236#2" modes="public"/>
    </person>
    <person id="ped150" depart="49.82" type="ped_pedestrian">
        <personTrip from="911461605#0" to="753508669#0" modes="public"/>
    </person>
    <person id="ped151" depart="50.15" type="ped_pedestrian">
        <personTrip from="893945979#1" to="753601761#0" modes="public"/>
    </person>
    <person id="ped152" depart="50.48" type="ped_pedestrian">
        <personTrip from="126805529#2" to="126727836#1" modes="public"/>
    </person>
    <person id="ped153" depart="50.81" type="ped_pedestrian">
        <personTrip from="371366258" to="911461597#3" modes="public"/>
    </person>
    <person id="ped154" depart="51.15" type="ped_pedestrian">
        <personTrip from="887693081#1" to="895304297#1" modes="public"/>
    </person>
    <person id="ped155" depart="51.48" type="ped_pedestrian">
        <personTrip from="911461597#3" to="235370213" modes="public"/>
    </person>
    <person id="ped156" depart="51.81" type="ped_pedestrian">
        <personTrip from="280408170#0" to="126426448#0" modes="public"/>
    </person>
    <person id="ped157" depart="52.14" type="ped_pedestrian">
        <personTrip from="886813241#4" to="907164237#1" modes="public"/>
    </person>
    <person id="ped158" depart="52.47" type="ped_pedestrian">
        <personTrip from="4754987#0" to="753752143#0" modes="public"/>
    </person>
    <person id="ped159" depart="52.81" type="ped_pedestrian">
        <personTrip from="126807842#7" to="970754070#1" modes="public"/>
    </person>
    <person id="ped160" depart="53.14" type="ped_pedestrian">
        <personTrip from="895747525#2" to="970882903" modes="public"/>
    </person>
    <person id="ped161" depart="53.47" type="ped_pedestrian">
        <personTrip from="893832402#3" to="907164231" modes="public"/>
    </person>
    <person id="ped162" depart="53.80" type="ped_pedestrian">
        <personTrip from="-280408172" to="886633761#1" modes="public"/>
    </person>
    <person id="ped163" depart="54.14" type="ped_pedestrian">
        <personTrip from="413441089#1" to="970754073" modes="public"/>
    </person>
    <person id="ped164" depart="54.47" type="ped_pedestrian">
        <personTrip from="887693098#1" to="895747524#2" modes="public"/>
    </person>
    <person id="ped165" depart="54.80" type="ped_pedestrian">
        <personTrip from="893832402#3" to="295215803#8" modes="public"/>
    </person>
    <person id="ped166" depart="55.13" type="ped_pedestrian">
        <personTrip from="887679219#1" to="126442797#1" modes="public"/>
    </person>
    <person id="ped167" depart="55.46" type="ped_pedestrian">
        <personTrip from="902208621#1" to="895076969#0" modes="public"/>
    </person>
    <person id="ped168" depart="55.80" type="ped_pedestrian">
        <personTrip from="239117583#6" to="893832409#8" modes="public"/>
    </person>
    <person id="ped169" depart="56.13" type="ped_pedestrian">
        <personTrip from="553309960#1" to="359739475#1" modes="public"/>
    </person>
    <person id="ped170" depart="56.46" type="ped_pedestrian">
        <personTrip from="887689217#2" to="243093273#4" modes="public"/>
    </person>
    <person id="ped171" depart="56.79" type="ped_pedestrian">
        <personTrip from="-246548945#0" to="19832641" modes="public"/>
    </person>
    <person id="ped172" depart="57.12" type="ped_pedestrian">
        <personTrip from="413441069" to="895747525#1" modes="public"/>
    </person>
    <person id="ped173" depart="57.46" type="ped_pedestrian">
        <personTrip from="970882863" to="315441163#1" modes="public"/>
    </person>
    <person id="ped174" depart="57.79" type="ped_pedestrian">
        <personTrip from="766520488#1" to="4746868#1" modes="public"/>
    </person>
    <person id="ped175" depart="58.12" type="ped_pedestrian">
        <personTrip from="970910276#0" to="753439994#2" modes="public"/>
    </person>
    <person id="ped176" depart="58.45" type="ped_pedestrian">
        <personTrip from="970755101#3" to="126442810#1" modes="public"/>
    </person>
    <person id="ped177" depart="58.79" type="ped_pedestrian">
        <personTrip from="970882876" to="18506057" modes="public"/>
    </person>
    <person id="ped178" depart="59.12" type="ped_pedestrian">
        <personTrip from="970882845" to="295215798#4" modes="public"/>
    </person>
    <person id="ped179" depart="59.45" type="ped_pedestrian">
        <personTrip from="126442797#2" to="502812530#0" modes="public"/>
    </person>
    <person id="ped180" depart="59.78" type="ped_pedestrian">
        <personTrip from="886633740#1" to="4079505#0" modes="public"/>
    </person>
    <person id="ped181" depart="60.11" type="ped_pedestrian">
        <personTrip from="753730054#1" to="746391191#0" modes="public"/>
    </person>
    <person id="ped182" depart="60.45" type="ped_pedestrian">
        <personTrip from="4744792#8" to="753601747#0" modes="public"/>
    </person>
    <person id="ped183" depart="60.78" type="ped_pedestrian">
        <personTrip from="282647548#2" to="881252839#5" modes="public"/>
    </person>
    <person id="ped184" depart="61.11" type="ped_pedestrian">
        <personTrip from="-126397527#2" to="970754053#0" modes="public"/>
    </person>
    <person id="ped185" depart="61.44" type="ped_pedestrian">
        <personTrip from="753439998#3" to="886623696#3" modes="public"/>
    </person>
    <person id="ped186" depart="61.77" type="ped_pedestrian">
        <personTrip from="886806839#0" to="789706432" modes="public"/>
    </person>
    <person id="ped187" depart="62.11" type="ped_pedestrian">
        <personTrip from="457712222#3" to="120328519" modes="public"/>
    </person>
    <person id="ped188" depart="62.44" type="ped_pedestrian">
        <personTrip from="777186747#2" to="413441086#2" modes="public"/>
    </person>
    <person id="ped189" depart="62.77" type="ped_pedestrian">
        <personTrip from="4079505#1" to="893988159" modes="public"/>
    </person>
    <person id="ped190" depart="63.10" type="ped_pedestrian">
        <personTrip from="886623697#1" to="359739471#7" modes="public"/>
    </person>
    <person id="ped191" depart="63.43" type="ped_pedestrian">
        <personTrip from="371367833" to="4755002#10" modes="public"/>
    </person>
    <person id="ped192" depart="63.77" type="ped_pedestrian">
        <personTrip from="4750617#0" to="359739471#18" modes="public"/>
    </person>
    <person id="ped193" depart="64.10" type="ped_pedestrian">
        <personTrip from="126725976#1" to="4785522#3" modes="public"/>
    </person>
    <person id="ped194" depart="64.43" type="ped_pedestrian">
        <personTrip from="970862910#1" to="789706444#3" modes="public"/>
    </person>
    <person id="ped195" depart="64.76" type="ped_pedestrian">
        <personTrip from="911461603#1" to="753752130" modes="public"/>
    </person>
    <person id="ped196" depart="65.10" type="ped_pedestrian">
        <personTrip from="359739472#0" to="753508674#0" modes="public"/>
    </person>
    <person id="ped197" depart="65.43" type="ped_pedestrian">