<?xml version="1.0" encoding="UTF-8"?>

<!-- generated on 2021-11-01 11:34:50 by Eclipse SUMO duarouter Version 1.10.0
<configuration xmlns:xsi="http://www.w3.org/2001/XMLSchema-instance" xsi:noNamespaceSchemaLocation="http://sumo.dlr.de/xsd/duarouterConfiguration.xsd">

    <input>
        <net-file value="C:\Users\juane\Sumo\2021-11-01-11-34-18\osm.net.xml"/>
        <route-files value="C:\Users\juane\Sumo\2021-11-01-11-34-18\osm.passenger.trips.xml"/>
    </input>

    <output>
        <output-file value="C:\Users\juane\Sumo\2021-11-01-11-34-18\osm.passenger.trips.xml.tmp"/>
        <write-trips value="true"/>
    </output>

    <time>
        <begin value="0"/>
        <end value="3600"/>
    </time>

    <report>
        <no-warnings value="true"/>
        <ignore-errors value="true"/>
        <no-step-log value="true"/>
    </report>

</configuration>
-->

<routes xmlns:xsi="http://www.w3.org/2001/XMLSchema-instance" xsi:noNamespaceSchemaLocation="http://sumo.dlr.de/xsd/routes_file.xsd">
    <vType id="veh_passenger" vClass="passenger"/>
    <trip id="veh0" type="veh_passenger" depart="0.00" departLane="best" from="4746864#3" to="-246548945#0"/>
    <trip id="veh1" type="veh_passenger" depart="3.06" departLane="best" departSpeed="max" from="4809721#0" to="4746867#1"/>
    <trip id="veh3" type="veh_passenger" depart="9.18" departLane="best" from="309051278#2" to="-246548945#2"/>
    <trip id="veh5" type="veh_passenger" depart="15.31" departLane="best" departSpeed="max" from="-192239288#1" to="18507616#4"/>
    <trip id="veh8" type="veh_passenger" depart="24.49" departLane="best" from="542284837#3" to="-16367702#3"/>
    <trip id="veh12" type="veh_passenger" depart="36.73" departLane="best" from="553309961#7" to="462400263"/>
    <trip id="veh14" type="veh_passenger" depart="42.86" departLane="best" from="4079505#9" to="970882858#0"/>
    <trip id="veh16" type="veh_passenger" depart="48.98" departLane="best" from="208855944#1" to="239117583#8"/>
    <trip id="veh18" type="veh_passenger" depart="55.10" departLane="best" from="-902517725#1" to="237994920#1"/>
    <trip id="veh20" type="veh_passenger" depart="61.22" departLane="best" departSpeed="max" from="4746868#0" to="4743363#2"/>
    <trip id="veh24" type="veh_passenger" depart="73.47" departLane="best" from="4079520#1" to="4747016#1"/>
    <trip id="veh25" type="veh_passenger" depart="76.53" departLane="best" from="553309960#0" to="49542094#2"/>
    <trip id="veh26" type="veh_passenger" depart="79.59" departLane="best" from="246638753" to="237649291#2"/>
    <trip id="veh27" type="veh_passenger" depart="82.65" departLane="best" from="18831579#3" to="93994367#1"/>
    <trip id="veh28" type="veh_passenger" depart="85.71" departLane="best" from="753508657#1" to="245672931#2"/>
    <trip id="veh29" type="veh_passenger" depart="88.77" departLane="best" from="4747016#0" to="294123479#2"/>
    <trip id="veh31" type="veh_passenger" depart="94.90" departLane="best" from="237649292#1" to="217108056#0"/>
    <trip id="veh33" type="veh_passenger" depart="101.02" departLane="best" from="450445884" to="86772180#3"/>
    <trip id="veh34" type="veh_passenger" depart="104.08" departLane="best" from="294871189" to="18832345#0"/>
    <trip id="veh36" type="veh_passenger" depart="110.20" departLane="best" from="10851731#5" to="474464196#6"/>
    <trip id="veh37" type="veh_passenger" depart="113.26" departLane="best" from="498952133#0" to="305108024"/>
    <trip id="veh39" type="veh_passenger" depart="119.39" departLane="best" from="970882856" to="732068095#1"/>
    <trip id="veh41" type="veh_passenger" depart="125.51" departLane="best" from="4755002#10" to="4079500#1"/>
    <trip id="veh43" type="veh_passenger" depart="131.63" departLane="best" from="359735826#0" to="970456884#1"/>
    <trip id="veh46" type="veh_passenger" depart="140.81" departLane="best" from="880513895#6" to="753508653#0"/>
    <trip id="veh48" type="veh_passenger" depart="146.94" departLane="best" from="4744807#1" to="136362730#4"/>
    <trip id="veh51" type="veh_passenger" depart="156.12" departLane="best" from="-10428122#1" to="246638755#0"/>
    <trip id="veh53" type="veh_passenger" depart="162.24" departLane="best" from="753508661#0" to="553309963#0"/>
    <trip id="veh55" type="veh_passenger" depart="168.36" departLane="best" from="753508660#0" to="959788822#2"/>
    <trip id="veh57" type="veh_passenger" depart="174.49" departLane="best" from="237649292#1" to="753508659"/>
    <trip id="veh58" type="veh_passenger" depart="177.55" departLane="best" from="309189479" to="185961564#6"/>
    <trip id="veh61" type="veh_passenger" depart="186.73" departLane="best" from="10851867#4" to="18833123#0"/>
    <trip id="veh63" type="veh_passenger" depart="192.85" departLane="best" from="208855944#4" to="18832345#2"/>
    <trip id="veh64" type="veh_passenger" depart="195.92" departLane="best" from="-413441088#0" to="474464196#6"/>
    <trip id="veh65" type="veh_passenger" depart="198.98" departLane="best" from="556049572#2" to="-43269996"/>
    <trip id="veh66" type="veh_passenger" depart="202.04" departLane="best" departSpeed="max" from="216972169" to="4746864#0"/>
    <trip id="veh67" type="veh_passenger" depart="205.10" departLane="best" from="18832345#3" to="114574157#3"/>
    <trip id="veh68" type="veh_passenger" depart="208.16" departLane="best" from="906395262#0" to="413441088#1"/>
    <trip id="veh70" type="veh_passenger" depart="214.28" departLane="best" departSpeed="max" from="542284837#0" to="18506598#1"/>
    <trip id="veh74" type="veh_passenger" depart="226.53" departLane="best" from="557129738" to="217108057#1"/>
    <trip id="veh75" type="veh_passenger" depart="229.59" departLane="best" from="18508391#0" to="331574668#0"/>
    <trip id="veh77" type="veh_passenger" depart="235.71" departLane="best" from="235508887#5" to="895304295"/>
    <trip id="veh89" type="veh_passenger" depart="272.44" departLane="best" from="4743368#4" to="4746867#0"/>
    <trip id="veh90" type="veh_passenger" depart="275.51" departLane="best" departSpeed="max" from="216972169" to="10851770#5"/>
    <trip id="veh91" type="veh_passenger" depart="278.57" departLane="best" from="827052043#2" to="216972188"/>
    <trip id="veh92" type="veh_passenger" depart="281.63" departLane="best" from="4743368#1" to="474464196#2"/>
    <trip id="veh94" type="veh_passenger" depart="287.75" departLane="best" from="40653591#0" to="906395262#1"/>
    <trip id="veh96" type="veh_passenger" depart="293.87" departLane="best" departSpeed="max" from="216972169" to="294123479#2"/>
    <trip id="veh100" type="veh_passenger" depart="306.12" departLane="best" from="-413441088#2" to="18616637#1"/>
    <trip id="veh102" type="veh_passenger" depart="312.24" departLane="best" from="753730064#1" to="76168863#6"/>
    <trip id="veh106" type="veh_passenger" depart="324.48" departLane="best" from="4747015#3" to="-16367702#5"/>
    <trip id="veh107" type="veh_passenger" depart="327.55" departLane="best" from="542623450#4" to="241975841#0"/>
    <trip id="veh109" type="veh_passenger" depart="333.67" departLane="best" from="126754493" to="10851731#7"/>
    <trip id="veh112" type="veh_passenger" depart="342.85" departLane="best" from="4746863#3" to="236322513#0"/>
    <trip id="veh117" type="veh_passenger" depart="358.16" departLane="best" from="4746864#0" to="235748487#4"/>
    <trip id="veh118" type="veh_passenger" depart="361.22" departLane="best" from="314839726#1" to="-18596059#1"/>
    <trip id="veh122" type="veh_passenger" depart="373.46" departLane="best" from="140318962#2" to="11297310#1"/>
    <trip id="veh123" type="veh_passenger" depart="376.52" departLane="best" departSpeed="max" from="246548945#0" to="86772180#5"/>
    <trip id="veh124" type="veh_passenger" depart="379.59" departLane="best" from="502812544#2" to="732068095#1"/>
    <trip id="veh126" type="veh_passenger" depart="385.71" departLane="best" from="49542094#0" to="827052043#2"/>
    <trip id="veh127" type="veh_passenger" depart="388.77" departLane="best" from="295215798#5" to="474464196#3"/>
    <trip id="veh130" type="veh_passenger" depart="397.95" departLane="best" from="542284838#0" to="79304108#1"/>
    <trip id="veh133" type="veh_passenger" depart="407.14" departLane="best" departSpeed="max" from="542284837#0" to="733641954"/>
    <trip id="veh134" type="veh_passenger" depart="410.20" departLane="best" from="49542095#2" to="10428122#1"/>
    <trip id="veh136" type="veh_passenger" depart="416.32" departLane="best" from="191703316#6" to="553238924#0"/>
    <trip id="veh138" type="veh_passenger" depart="422.44" departLane="best" departSpeed="max" from="-192235671#4" to="18506598#3"/>
    <trip id="veh141" type="veh_passenger" depart="431.63" departLane="best" from="970882878" to="4079500#1"/>
    <trip id="veh142" type="veh_passenger" depart="434.69" departLane="best" from="906395262#2" to="10851731#7"/>
    <trip id="veh154" type="veh_passenger" depart="471.42" departLane="best" departSpeed="max" from="246548945#0" to="295215798#4"/>
    <trip id="veh155" type="veh_passenger" depart="474.48" departLane="best" from="295215797#3" to="239838074#2"/>
    <trip id="veh156" type="veh_passenger" depart="477.54" departLane="best" from="114574157#1" to="305108024"/>
    <trip id="veh157" type="veh_passenger" depart="480.60" departLane="best" from="906750214" to="4746867#3"/>
    <trip id="veh158" type="veh_passenger" depart="483.67" departLane="best" from="86772180#3" to="4743454#6"/>
    <trip id="veh160" type="veh_passenger" depart="489.79" departLane="best" from="-10428122#1" to="239117583#5"/>
    <trip id="veh162" type="veh_passenger" depart="495.91" departLane="best" from="32465719#5" to="18616637#1"/>
    <trip id="veh164" type="veh_passenger" depart="502.03" departLane="best" from="502812544#2" to="146265097"/>
    <trip id="veh165" type="veh_passenger" depart="505.09" departLane="best" from="-4751867#0" to="359739475#4"/>
    <trip id="veh169" type="veh_passenger" depart="517.34" departLane="best" from="18596059#2" to="-246548945#0"/>
    <trip id="veh170" type="veh_passenger" depart="520.40" departLane="best" from="553309963#0" to="-4743375"/>
    <trip id="veh171" type="veh_passenger" depart="523.46" departLane="best" from="295215803#8" to="474464196#6"/>
    <trip id="veh174" type="veh_passenger" depart="532.64" departLane="best" from="4747016#1" to="-16367702#2"/>
    <trip id="veh175" type="veh_passenger" depart="535.71" departLane="best" from="10851731#10" to="309051278#2"/>
    <trip id="veh178" type="veh_passenger" depart="544.89" departLane="best" from="235508887#3" to="58531296#0"/>
    <trip id="veh181" type="veh_passenger" depart="554.07" departLane="best" from="827052043#3" to="4743454#0"/>
    <trip id="veh183" type="veh_passenger" depart="560.20" departLane="best" from="8380793" to="4785522#3"/>
    <trip id="veh187" type="veh_passenger" depart="572.44" departLane="best" from="4746228#1" to="237649293#1"/>
    <trip id="veh192" type="veh_passenger" depart="587.75" departLane="best" from="4755005#5" to="-423227070#0"/>
    <trip id="veh194" type="veh_passenger" depart="593.87" departLane="best" from="305108027#0" to="880513895#3"/>
    <trip id="veh202" type="veh_passenger" depart="618.36" departLane="best" from="191703316#1" to="18832345#0"/>
    <trip id="veh207" type="veh_passenger" depart="633.66" departLane="best" from="4746227#0" to="-246548945#0"/>
    <trip id="veh210" type="veh_passenger" depart="642.85" departLane="best" departSpeed="max" from="-4079500#1" to="291731096#1"/>
    <trip id="veh211" type="veh_passenger" depart="645.91" departLane="best" from="18832345#0" to="246638755#0"/>
    <trip id="veh217" type="veh_passenger" depart="664.28" departLane="best" from="4746868#1" to="49542095#2"/>
    <trip id="veh219" type="veh_passenger" depart="670.40" departLane="best" from="93994362" to="18507616#4"/>
    <trip id="veh220" type="veh_passenger" depart="673.46" departLane="best" from="-192235671#1" to="136362730#3"/>
    <trip id="veh221" type="veh_passenger" depart="676.52" departLane="best" from="11297310#4" to="4746864#0"/>
    <trip id="veh223" type="veh_passenger" depart="682.64" departLane="best" from="180793106" to="4743362#1"/>
    <trip id="veh225" type="veh_passenger" depart="688.76" departLane="best" from="10851731#3" to="-246548945#0"/>
    <trip id="veh226" type="veh_passenger" depart="691.83" departLane="best" from="246638752#0" to="4746867#3"/>
    <trip id="veh235" type="veh_passenger" depart="719.38" departLane="best" from="553309963#0" to="553309959#0"/>
    <trip id="veh237" type="veh_passenger" depart="725.50" departLane="best" from="4746863#4" to="553309961#7"/>
    <trip id="veh242" type="veh_passenger" depart="740.80" departLane="best" from="76168863#1" to="214435390#2"/>
    <trip id="veh245" type="veh_passenger" depart="749.99" departLane="best" from="553309963#1" to="18504649#7"/>
    <trip id="veh246" type="veh_passenger" depart="753.05" departLane="best" from="18832345#0" to="542284838#3"/>
    <trip id="veh248" type="veh_passenger" depart="759.17" departLane="best" departSpeed="max" from="-126754494" to="959788822#2"/>
    <trip id="veh256" type="veh_passenger" depart="783.66" departLane="best" from="235748484#3" to="10851770#6"/>
    <trip id="veh257" type="veh_passenger" depart="786.72" departLane="best" from="18508391#1" to="10851770#5"/>
    <trip id="veh258" type="veh_passenger" depart="789.78" departLane="best" from="4079505#8" to="4809738#1"/>
    <trip id="veh262" type="veh_passenger" depart="802.03" departLane="best" departSpeed="max" from="18524314#0" to="191703316#1"/>
    <trip id="veh263" type="veh_passenger" depart="805.09" departLane="best" from="18506598#2" to="-192235671#2"/>
    <trip id="veh271" type="veh_passenger" depart="829.58" departLane="best" from="-413441088#3" to="474464196#6"/>
    <trip id="veh273" type="veh_passenger" depart="835.70" departLane="best" from="417596337#1" to="243093273#1"/>
    <trip id="veh276" type="veh_passenger" depart="844.89" departLane="best" from="498952133#0" to="18833123#1"/>
    <trip id="veh277" type="veh_passenger" depart="847.95" departLane="best" from="40653591#0" to="331574668#2"/>
    <trip id="veh279" type="veh_passenger" depart="854.07" departLane="best" from="4746226#5" to="4743363#2"/>
    <trip id="veh281" type="veh_passenger" depart="860.19" departLane="best" from="18618300#3" to="185961564#5"/>
    <trip id="veh282" type="veh_passenger" depart="863.25" departLane="best" departSpeed="max" from="4747018#0" to="136362730#9"/>
    <trip id="veh284" type="veh_passenger" depart="869.37" departLane="best" from="-10851867#4" to="331574668#2"/>
    <trip id="veh285" type="veh_passenger" depart="872.44" departLane="best" from="4743368#1" to="239117584#0"/>
    <trip id="veh288" type="veh_passenger" depart="881.62" departLane="best" from="49542095#2" to="474464196#5"/>
    <trip id="veh289" type="veh_passenger" depart="884.68" departLane="best" from="4747018#1" to="906395262#1"/>
    <trip id="veh291" type="veh_passenger" depart="890.80" departLane="best" departSpeed="max" from="4746868#0" to="880513895#8"/>
    <trip id="veh295" type="veh_passenger" depart="903.05" departLane="best" from="241873466#5" to="10851867#4"/>
    <trip id="veh306" type="veh_passenger" depart="936.72" departLane="best" from="880513897#3" to="18504649#7"/>
    <trip id="veh307" type="veh_passenger" depart="939.78" departLane="best" from="450445884" to="4744792#7"/>
    <trip id="veh312" type="veh_passenger" depart="955.09" departLane="best" from="241873466#5" to="959788822#2"/>
    <trip id="veh319" type="veh_passenger" depart="976.52" departLane="best" from="18507616#3" to="281056199#9"/>
    <trip id="veh322" type="veh_passenger" depart="985.70" departLane="best" from="4079509#4" to="902517725#1"/>
    <trip id="veh325" type="veh_passenger" depart="994.88" departLane="best" from="4744807#1" to="19918639"/>
    <trip id="veh326" type="veh_passenger" depart="997.94" departLane="best" from="4079509#8" to="-543357596"/>
    <trip id="veh330" type="veh_passenger" depart="1010.19" departLane="best" departSpeed="max" from="4755055#0" to="359739475#1"/>
    <trip id="veh331" type="veh_passenger" depart="1013.25" departLane="best" from="239117583#1" to="553309965#0"/>
    <trip id="veh334" type="veh_passenger" depart="1022.43" departLane="best" from="753508661#1" to="733641954"/>
    <trip id="veh337" type="veh_passenger" depart="1031.62" departLane="best" from="239662764#2" to="241873466#5"/>
    <trip id="veh347" type="veh_passenger" depart="1062.23" departLane="best" from="457644767#5" to="753508652#0"/>
    <trip id="veh349" type="veh_passenger" depart="1068.35" departLane="best" from="4079500#0" to="359735826#1"/>
    <trip id="veh351" type="veh_passenger" depart="1074.47" departLane="best" from="4747016#0" to="136362730#6"/>
    <trip id="veh353" type="veh_passenger" depart="1080.60" departLane="best" departSpeed="max" from="4746868#0" to="62125871"/>
    <trip id="veh364" type="veh_passenger" depart="1114.27" departLane="best" from="417596337#16" to="502812544#4"/>
    <trip id="veh367" type="veh_passenger" depart="1123.45" departLane="best" from="217108057#0" to="880513897#5"/>
    <trip id="veh369" type="veh_passenger" depart="1129.57" departLane="best" from="235748487#1" to="235508887#2"/>
    <trip id="veh370" type="veh_passenger" depart="1132.64" departLane="best" departSpeed="max" from="-126754494" to="542623450#5"/>
    <trip id="veh371" type="veh_passenger" depart="1135.70" departLane="best" from="867009429" to="4746867#4"/>
    <trip id="veh374" type="veh_passenger" depart="1144.88" departLane="best" from="235508887#5" to="556049572#3"/>
    <trip id="veh383" type="veh_passenger" depart="1172.43" departLane="best" from="239838074#4" to="542623450#0"/>
    <trip id="veh384" type="veh_passenger" depart="1175.49" departLane="best" from="4744792#1" to="261716934#3"/>
    <trip id="veh385" type="veh_passenger" depart="1178.55" departLane="best" from="4746864#0" to="474464196#3"/>
    <trip id="veh386" type="veh_passenger" depart="1181.61" departLane="best" departSpeed="max" from="4747018#0" to="553309966#4"/>
    <trip id="veh390" type="veh_passenger" depart="1193.86" departLane="best" from="18506598#0" to="114574157#3"/>
    <trip id="veh392" type="veh_passenger" depart="1199.98" departLane="best" from="550888669#1" to="235748484#2"/>
    <trip id="veh395" type="veh_passenger" depart="1209.17" departLane="best" from="249938214" to="10851731#7"/>
    <trip id="veh399" type="veh_passenger" depart="1221.41" departLane="best" departSpeed="max" from="291731094#0" to="502812544#2"/>
    <trip id="veh403" type="veh_passenger" depart="1233.65" departLane="best" from="548337280" to="920602947#8"/>
    <trip id="veh404" type="veh_passenger" depart="1236.72" departLane="best" from="10851731#3" to="192239288#1"/>
    <trip id="veh405" type="veh_passenger" depart="1239.78" departLane="best" departSpeed="max" from="-192235671#4" to="827052043#2"/>
    <trip id="veh407" type="veh_passenger" depart="1245.90" departLane="best" departSpeed="max" from="548391756#0" to="880513897#2"/>
    <trip id="veh408" type="veh_passenger" depart="1248.96" departLane="best" from="245672930" to="295215798#4"/>
    <trip id="veh409" type="veh_passenger" depart="1252.02" departLane="best" from="136362730#3" to="959788822#2"/>
    <trip id="veh411" type="veh_passenger" depart="1258.14" departLane="best" from="-58531296#0" to="827052043#6"/>
    <trip id="veh414" type="veh_passenger" depart="1267.33" departLane="best" from="920602947#4" to="305108024"/>
    <trip id="veh416" type="veh_passenger" depart="1273.45" departLane="best" from="295215808#1" to="-58531296#2"/>
    <trip id="veh418" type="veh_passenger" depart="1279.57" departLane="best" from="960099379" to="-295215808#4"/>
    <trip id="veh420" type="veh_passenger" depart="1285.69" departLane="best" from="960099378" to="62213293#2"/>
    <trip id="veh421" type="veh_passenger" depart="1288.76" departLane="best" from="18507616#4" to="10851770#8"/>
    <trip id="veh426" type="veh_passenger" depart="1304.06" departLane="best" from="-4079509#7" to="4809738#1"/>
    <trip id="veh428" type="veh_passenger" depart="1310.18" departLane="best" from="62213293#6" to="246638755#0"/>
    <trip id="veh429" type="veh_passenger" depart="1313.25" departLane="best" from="140318962#1" to="86772200#2"/>
    <trip id="veh430" type="veh_passenger" depart="1316.31" departLane="best" from="-10851867#4" to="625774638#1"/>
    <trip id="veh431" type="veh_passenger" depart="1319.37" departLane="best" from="136859456#0" to="11297310#4"/>
    <trip id="veh432" type="veh_passenger" depart="1322.43" departLane="best" departSpeed="max" from="4747018#0" to="-246548945#0"/>
    <trip id="veh434" type="veh_passenger" depart="1328.55" departLane="best" departSpeed="max" from="216972169" to="246638755#0"/>
    <trip id="veh443" type="veh_passenger" depart="1356.10" departLane="best" from="880513895#3" to="-4743375"/>
    <trip id="veh444" type="veh_passenger" depart="1359.16" departLane="best" from="-4743375" to="4743362#1"/>
    <trip id="veh453" type="veh_passenger" depart="1386.71" departLane="best" from="295215808#2" to="-553309962#0"/>
    <trip id="veh454" type="veh_passenger" depart="1389.77" departLane="best" from="314839720#2" to="4746863#1"/>
    <trip id="veh458" type="veh_passenger" depart="1402.02" departLane="best" from="-553309963#1" to="4785181#1"/>
    <trip id="veh461" type="veh_passenger" depart="1411.20" departLane="best" from="246640824#3" to="10851770#8"/>
    <trip id="veh464" type="veh_passenger" depart="1420.39" departLane="best" from="4747017" to="18833123#0"/>
    <trip id="veh465" type="veh_passenger" depart="1423.45" departLane="best" from="10851731#3" to="556049572#3"/>
    <trip id="veh466" type="veh_passenger" depart="1426.51" departLane="best" from="291731094#1" to="4809738#1"/>
    <trip id="veh467" type="veh_passenger" depart="1429.57" departLane="best" from="417596337#5" to="545931995"/>
    <trip id="veh469" type="veh_passenger" depart="1435.69" departLane="best" from="542623450#5" to="4743454#3"/>
    <trip id="veh470" type="veh_passenger" depart="1438.75" departLane="best" from="4746864#7" to="-246548945#0"/>
    <trip id="veh472" type="veh_passenger" depart="1444.88" departLane="best" from="261716933#1" to="-16367702#2"/>
    <trip id="veh475" type="veh_passenger" depart="1454.06" departLane="best" from="4746863#1" to="-295215808#1"/>
    <trip id="veh477" type="veh_passenger" depart="1460.18" departLane="best" from="305108027#0" to="246640824#7"/>
    <trip id="veh478" type="veh_passenger" depart="1463.24" departLane="best" departSpeed="max" from="48174566#0" to="4079520#0"/>
    <trip id="veh482" type="veh_passenger" depart="1475.49" departLane="best" from="32465719#5" to="237649293#0"/>
    <trip id="veh485" type="veh_passenger" depart="1484.67" departLane="best" from="4754987#6" to="359739471#33"/>
    <trip id="veh488" type="veh_passenger" depart="1493.85" departLane="best" from="235748487#4" to="246638755#0"/>
    <trip id="veh497" type="veh_passenger" depart="1521.41" departLane="best" from="10851770#3" to="-216972169"/>
    <trip id="veh498" type="veh_passenger" depart="1524.47" departLane="best" departSpeed="max" from="246640824#0" to="542623450#2"/>
    <trip id="veh500" type="veh_passenger" depart="1530.59" departLane="best" from="553309961#0" to="208855944#4"/>
    <trip id="veh507" type="veh_passenger" depart="1552.02" departLane="best" from="542623450#2" to="19918639"/>
    <trip id="veh508" type="veh_passenger" depart="1555.08" departLane="best" from="136859456#2" to="18507616#3"/>
    <trip id="veh514" type="veh_passenger" depart="1573.45" departLane="best" from="4746227#3" to="733641954"/>
    <trip id="veh516" type="veh_passenger" depart="1579.57" departLane="best" from="245672931#0" to="237649293#1"/>
    <trip id="veh520" type="veh_passenger" depart="1591.81" departLane="best" from="553309966#2" to="4743454#6"/>
    <trip id="veh523" type="veh_passenger" depart="1601.00" departLane="best" from="8380793" to="331574668#1"/>
    <trip id="veh524" type="veh_passenger" depart="1604.06" departLane="best" from="542284837#3" to="4746226#5"/>
    <trip id="veh532" type="veh_passenger" depart="1628.55" departLane="best" from="239662764#2" to="295215798#5"/>
    <trip id="veh534" type="veh_passenger" depart="1634.67" departLane="best" from="49542095#4" to="4746225#5"/>
    <trip id="veh537" type="veh_passenger" depart="1643.85" departLane="best" from="4785181#2" to="4746227#5"/>
    <trip id="veh539" type="veh_passenger" depart="1649.97" departLane="best" from="294123479#1" to="450445884"/>
    <trip id="veh541" type="veh_passenger" depart="1656.10" departLane="best" departSpeed="max" from="293858824#0" to="502812544#3"/>
    <trip id="veh542" type="veh_passenger" depart="1659.16" departLane="best" from="542623450#0" to="4746864#1"/>
    <trip id="veh543" type="veh_passenger" depart="1662.22" departLane="best" from="550888669#0" to="4785181#1"/>
    <trip id="veh544" type="veh_passenger" depart="1665.28" departLane="best" from="4746867#4" to="305108027#1"/>
    <trip id="veh546" type="veh_passenger" depart="1671.40" departLane="best" from="18506598#3" to="18618230"/>
    <trip id="veh548" type="veh_passenger" depart="1677.53" departLane="best" from="192235671#4" to="126328435#2"/>
    <trip id="veh551" type="veh_passenger" depart="1686.71" departLane="best" from="553305786#0" to="79304108#2"/>
    <trip id="veh557" type="veh_passenger" depart="1705.08" departLane="best" from="32465719#7" to="239117583#2"/>
    <trip id="veh560" type="veh_passenger" depart="1714.26" departLane="best" from="553238924#0" to="283764989#0"/>
    <trip id="veh566" type="veh_passenger" depart="1732.63" departLane="best" from="235508887#5" to="4746209#0"/>
    <trip id="veh569" type="veh_passenger" depart="1741.81" departLane="best" from="553309964#0" to="239117583#2"/>
    <trip id="veh571" type="veh_passenger" depart="1747.93" departLane="best" from="86772180#6" to="126754494"/>
    <trip id="veh572" type="veh_passenger" depart="1750.99" departLane="best" from="32465719#1" to="959788822#2"/>
    <trip id="veh574" type="veh_passenger" depart="1757.12" departLane="best" from="281056199#6" to="-246548945#0"/>
    <trip id="veh575" type="veh_passenger" depart="1760.18" departLane="best" departSpeed="max" from="-4079500#1" to="359739472#4"/>
    <trip id="veh580" type="veh_passenger" depart="1775.48" departLane="best" from="136362730#1" to="239117583#5"/>
    <trip id="veh587" type="veh_passenger" depart="1796.91" departLane="best" from="10851731#7" to="239117583#6"/>
    <trip id="veh589" type="veh_passenger" depart="1803.03" departLane="best" from="305108027#0" to="525586872#2"/>
    <trip id="veh591" type="veh_passenger" depart="1809.16" departLane="best" from="86772180#6" to="450445884"/>
    <trip id="veh593" type="veh_passenger" depart="1815.28" departLane="best" from="217108057#1" to="126754493"/>
    <trip id="veh594" type="veh_passenger" depart="1818.34" departLane="best" from="314839726#2" to="4743454#6"/>
    <trip id="veh595" type="veh_passenger" depart="1821.40" departLane="best" from="217108056#0" to="295215808#5"/>
    <trip id="veh597" type="veh_passenger" depart="1827.52" departLane="best" from="970882858#2" to="-423227070#3"/>
    <trip id="veh598" type="veh_passenger" depart="1830.58" departLane="best" from="4079500#0" to="359739475#0"/>
    <trip id="veh601" type="veh_passenger" depart="1839.77" departLane="best" from="235748487#1" to="-216972168"/>
    <trip id="veh603" type="veh_passenger" depart="1845.89" departLane="best" departSpeed="max" from="4809711" to="474464196#6"/>
    <trip id="veh607" type="veh_passenger" depart="1858.13" departLane="best" from="4746861#6" to="550888669#0"/>
    <trip id="veh612" type="veh_passenger" depart="1873.44" departLane="best" from="359739476#5" to="970910319"/>
    <trip id="veh615" type="veh_passenger" depart="1882.62" departLane="best" from="11297310#2" to="283764989#0"/>
    <trip id="veh618" type="veh_passenger" depart="1891.81" departLane="best" departSpeed="max" from="36817055" to="542623450#2"/>
    <trip id="veh623" type="veh_passenger" depart="1907.11" departLane="best" departSpeed="max" from="246548945#0" to="462400263"/>
    <trip id="veh630" type="veh_passenger" depart="1928.54" departLane="best" from="136362730#7" to="4743362#1"/>
    <trip id="veh631" type="veh_passenger" depart="1931.60" departLane="best" from="49542094#1" to="-314839726#1"/>
    <trip id="veh633" type="veh_passenger" depart="1937.73" departLane="best" departSpeed="max" from="291731094#0" to="293858824#11"/>
    <trip id="veh636" type="veh_passenger" depart="1946.91" departLane="best" from="291731096#1" to="4809738#1"/>
    <trip id="veh638" type="veh_passenger" depart="1953.03" departLane="best" from="294871189" to="4746226#2"/>
    <trip id="veh640" type="veh_passenger" depart="1959.15" departLane="best" from="237649292#0" to="235748487#1"/>
    <trip id="veh642" type="veh_passenger" depart="1965.28" departLane="best" from="239838074#2" to="882153784"/>
    <trip id="veh646" type="veh_passenger" depart="1977.52" departLane="best" from="553309961#3" to="246638752#3"/>
    <trip id="veh650" type="veh_passenger" depart="1989.77" departLane="best" from="896218296#1" to="4744792#8"/>
    <trip id="veh652" type="veh_passenger" depart="1995.89" departLane="best" from="10853180#0" to="18508391#0"/>
    <trip id="veh657" type="veh_passenger" depart="2011.19" departLane="best" departSpeed="max" from="-4751867#2" to="243093274"/>