<?xml version="1.0" encoding="UTF-8"?>

<!-- generated on 2021-11-01 11:34:43 by Eclipse SUMO polyconvert Version 1.10.0
<configuration xmlns:xsi="http://www.w3.org/2001/XMLSchema-instance" xsi:noNamespaceSchemaLocation="http://sumo.dlr.de/xsd/polyconvertConfiguration.xsd">

    <input>
        <net-file value="osm.net.xml"/>
        <osm-files value="osm_bbox.osm.xml"/>
        <osm.keep-full-type value="true"/>
        <type-file value="C:\Program%20Files%20(x86)\Eclipse\Sumo\data\typemap\osmPolyconvert.typ.xml"/>
    </input>

    <output>
        <output-file value="osm.poly.xml"/>
    </output>

    <processing>
        <poi-layer-offset value="5"/>
    </processing>

    <report>
        <verbose value="true"/>
    </report>

</configuration>
-->

<additional xmlns:xsi="http://www.w3.org/2001/XMLSchema-instance" xsi:noNamespaceSchemaLocation="http://sumo.dlr.de/xsd/additional_file.xsd">
    <location netOffset="296443.87,-3957850.58" convBoundary="0.00,-0.00,1386287.24,976355.67" origBoundary="-5.802677,35.709443,10.301213,44.407854" projParameter="+proj=utm +zone=31 +ellps=WGS84 +datum=WGS84 +units=m +no_defs"/>

    <poly id="10426929" type="amenity.theatre" color="237,199,199" fill="1" layer="-1.00" shape="727315.412752,623411.354991 727313.948914,623412.190565 727297.396559,623421.530531 727293.828213,623423.540886 727293.503798,623423.721627 727293.317403,623423.468040 727288.044112,623426.460613 727288.137999,623426.659568 727283.413305,623429.302722 727297.320709,623468.796057 727300.272814,623467.935176 727301.107523,623470.403146 727302.021829,623473.325573 727304.674288,623472.611890 727324.782081,623466.935272 727328.952038,623465.751908 727328.405131,623463.647584 727330.181306,623462.242789 727332.599030,623469.358859 727333.281520,623470.773514 727334.697939,623473.735568 727335.559836,623475.548214 727336.239462,623474.908871 727338.715170,623477.583253 727340.869744,623479.905407 727370.947457,623433.186578 727337.265031,623391.283593 727335.671950,623392.597818 727330.884983,623396.607182 727319.053071,623406.368400 727318.007639,623407.233291 727314.829430,623409.817261 727314.554550,623409.930911 727315.412752,623411.354991"/>
    <poly id="10426929#1" type="building.public" color="255,230,230" fill="1" layer="-1.00" shape="727315.412752,623411.354991 727313.948914,623412.190565 727297.396559,623421.530531 727293.828213,623423.540886 727293.503798,623423.721627 727293.317403,623423.468040 727288.044112,623426.460613 727288.137999,623426.659568 727283.413305,623429.302722 727297.320709,623468.796057 727300.272814,623467.935176 727301.107523,623470.403146 727302.021829,623473.325573 727304.674288,623472.611890 727324.782081,623466.935272 727328.952038,623465.751908 727328.405131,623463.647584 727330.181306,623462.242789 727332.599030,623469.358859 727333.281520,623470.773514 727334.697939,623473.735568 727335.559836,623475.548214 727336.239462,623474.908871 727338.715170,623477.583253 727340.869744,623479.905407 727370.947457,623433.186578 727337.265031,623391.283593 727335.671950,623392.597818 727330.884983,623396.607182 727319.053071,623406.368400 727318.007639,623407.233291 727314.829430,623409.817261 727314.554550,623409.930911 727315.412752,623411.354991"/>
    <poly id="10426929#2" type="tourism.attraction" color="207,245,201" fill="1" layer="-2.00" shape="727315.412752,623411.354991 727313.948914,623412.190565 727297.396559,623421.530531 727293.828213,623423.540886 727293.503798,623423.721627 727293.317403,623423.468040 727288.044112,623426.460613 727288.137999,623426.659568 727283.413305,623429.302722 727297.320709,623468.796057 727300.272814,623467.935176 727301.107523,623470.403146 727302.021829,623473.325573 727304.674288,623472.611890 727324.782081,623466.935272 727328.952038,623465.751908 727328.405131,623463.647584 727330.181306,623462.242789 727332.599030,623469.358859 727333.281520,623470.773514 727334.697939,623473.735568 727335.559836,623475.548214 727336.239462,623474.908871 727338.715170,623477.583253 727340.869744,623479.905407 727370.947457,623433.186578 727337.265031,623391.283593 727335.671950,623392.597818 727330.884983,623396.607182 727319.053071,623406.368400 727318.007639,623407.233291 727314.829430,623409.817261 727314.554550,623409.930911 727315.412752,623411.354991"/>
    <poly id="106635423" type="amenity.fire_station" color="237,199,199" fill="1" layer="-1.00" shape="727318.654910,622435.096383 727334.485917,622430.559827 727343.281122,622445.120608 727381.418613,622508.243114 727379.149523,622509.730305 727381.407881,622513.261692 727376.410701,622516.340374 727348.685036,622532.970158 727323.619077,622491.706762 727318.654910,622435.096383"/>
    <poly id="110220218" type="man_made.pier" color="255,230,230" fill="0" layer="-1.00" shape="728020.261831,622987.521878 727932.729867,623043.651867"/>
    <poly id="110220219" type="man_made.pier" color="255,230,230" fill="0" layer="-1.00" shape="728046.118545,623009.494547 728037.114104,623015.075419 727946.768393,623071.664813"/>
    <poly id="110220220" type="man_made.pier" color="255,230,230" fill="0" layer="-1.00" shape="727941.862552,623064.039134 727946.768393,623071.664813 727952.556269,623080.592292"/>
    <poly id="110220222" type="man_made.pier" color="255,230,230" fill="0" layer="-1.00" shape="727977.508110,622914.713681 727967.926311,622921.155006 727894.733456,622967.235169"/>
    <poly id="110220247" type="man_made.pier" color="255,230,230" fill="0" layer="-1.00" shape="727926.116669,623034.121551 727932.729867,623043.651867 727938.015912,623051.684751"/>
    <poly id="110220255" type="man_made.pier" color="255,230,230" fill="0" layer="-1.00" shape="727911.714945,622995.131394 727918.809078,623005.989489 727924.895489,623015.524779"/>
    <poly id="110220257" type="man_made.pier" color="255,230,230" fill="0" layer="-1.00" shape="727894.733456,622967.235169 727901.699896,622977.850193"/>
    <poly id="118706418" type="leisure.park" color="207,245,201" fill="1" layer="-2.00" shape="727218.796872,622260.369262 727197.858707,622267.897093 727186.137913,622264.955779 727148.611075,622439.273500 727153.693791,622442.522456 727160.582532,622443.966599 727187.712127,622449.869430 727187.500329,622451.337027 727202.571071,622454.779274 727210.324732,622453.961328 727216.129779,622426.881606 727223.482459,622384.942634 727223.889466,622382.895828 727224.027585,622380.718355 727230.825119,622382.241156 727236.736715,622356.670423 727230.062802,622354.957688 727230.687686,622353.830336 727231.551270,622351.423881 727237.449235,622325.298140 727238.965490,622325.550133 727240.983435,622317.026106 727241.820058,622317.051428 727246.900043,622296.351684 727248.337881,622287.511214 727246.985380,622264.108269 727246.003929,622263.806758 727246.317056,622262.438122 727244.774746,622262.086450 727244.983710,622261.196229 727234.395127,622258.577116 727234.155150,622259.722998 727233.032266,622259.500558 727229.831513,622258.898255 727225.657999,622258.904794 727218.796872,622260.369262"/>
    <poly id="122432788" type="building.residential" color="255,230,230" fill="1" layer="-1.00" shape="728625.377804,623078.961778 728643.558244,623019.014253 728628.078887,623014.595825 728610.981438,623074.977367 728625.377804,623078.961778"/>
    <poly id="122432792" type="building.house" color="255,230,230" fill="1" layer="-1.00" shape="728666.359918,623302.943657 728662.655447,623302.067874 728660.550295,623311.247369 728677.346904,623316.197574 728679.700856,623306.793701 728676.840316,623305.843403 728693.946662,623249.103628 728696.914578,623249.908593 728699.867216,623240.132740 728681.815738,623235.149802 728679.230217,623244.833408 728682.290015,623245.626405 728666.359918,623302.943657"/>
    <poly id="122432794" type="building.house" color="255,230,230" fill="1" layer="-1.00" shape="728700.512766,623312.772284 728697.217620,623311.848246 728694.409305,623320.956585 728711.639438,623325.769582 728714.244495,623316.385580 728710.880072,623315.206819 728728.532570,623258.717390 728731.217002,623259.613840 728733.807772,623250.485345 728716.406813,623245.307496 728713.914063,623255.079044 728716.595904,623255.697943 728700.512766,623312.772284"/>
    <poly id="122432797" type="building.public" color="255,230,230" fill="1" layer="-1.00" shape="728934.662949,623453.402486 728905.262838,623443.772739 728914.713813,623409.821158 728934.662949,623453.402486"/>
    <poly id="122432799" type="amenity.marketplace" color="237,199,199" fill="1" layer="-1.00" shape="728612.354400,623480.771727 728618.654712,623484.709765 728620.697447,623481.382012 728627.829505,623483.946629 728637.005393,623485.981401 728642.577910,623486.317859 728643.075196,623484.947562 728657.820731,623489.694849 728659.129938,623486.618231 728663.441812,623487.177451 728677.228026,623439.417516 728679.724629,623434.542248 728680.694819,623430.980281 728680.420412,623426.674962 728677.247363,623426.282727 728675.146045,623431.398561 728657.079805,623425.683046 728658.587061,623421.427679 728658.570555,623417.874938 728657.651443,623415.274377 728655.128017,623411.023405 728652.720035,623411.068135 728651.228878,623417.044287 728650.960874,623424.152584 728651.634891,623431.840518 728629.351140,623424.932116 728618.510255,623460.340471 728616.760475,623460.123690 728613.541699,623464.672656 728612.337004,623468.192417 728612.354400,623480.771727"/>
    <poly id="122432799#1" type="building.yes" color="255,230,230" fill="1" layer="-1.00" shape="728612.354400,623480.771727 728618.654712,623484.709765 728620.697447,623481.382012 728627.829505,623483.946629 728637.005393,623485.981401 728642.577910,623486.317859 728643.075196,623484.947562 728657.820731,623489.694849 728659.129938,623486.618231 728663.441812,623487.177451 728677.228026,623439.417516 728679.724629,623434.542248 728680.694819,623430.980281 728680.420412,623426.674962 728677.247363,623426.282727 728675.146045,623431.398561 728657.079805,623425.683046 728658.587061,623421.427679 728658.570555,623417.874938 728657.651443,623415.274377 728655.128017,623411.023405 728652.720035,623411.068135 728651.228878,623417.044287 728650.960874,623424.152584 728651.634891,623431.840518 728629.351140,623424.932116 728618.510255,623460.340471 728616.760475,623460.123690 728613.541699,623464.672656 728612.337004,623468.192417 728612.354400,623480.771727"/>
    <poly id="122432803" type="building.yes" color="255,230,230" fill="1" layer="-1.00" shape="728610.008412,623297.142296 728628.667142,623233.870486 728620.459262,623231.649016 728602.553896,623294.991515 728610.008412,623297.142296"/>
    <poly id="122432806" type="building.apartments" color="255,230,230" fill="1" layer="-1.00" shape="728708.747732,623117.474917 728729.906716,623043.288212 728722.006709,623040.919411 728700.647107,623115.108015 728708.747732,623117.474917"/>
    <poly id="122432810" type="building.yes" color="255,230,230" fill="1" layer="-1.00" shape="728796.642987,623356.885052 728788.325664,623354.564491 728764.531055,623438.401806 728772.529196,623440.580982 728776.781547,623425.807867 728796.642987,623356.885052"/>
    <poly id="122432814" type="building.apartments" color="255,230,230" fill="1" layer="-1.00" shape="728666.202531,623212.790439 728679.679709,623216.883474 728706.849769,623124.676161 728698.931249,623122.107709 728674.562910,623205.384414 728668.680634,623204.140394 728691.647665,623120.366039 728684.233249,623118.048255 728657.491259,623210.395989 728666.202531,623212.790439"/>
    <poly id="122432819" type="building.yes" color="255,230,230" fill="1" layer="-1.00" shape="728629.353712,623363.544722 728637.589850,623366.121225 728652.017629,623316.312336 728643.374720,623314.061603 728629.353712,623363.544722"/>
    <poly id="122432820" type="building.yes" color="255,230,230" fill="1" layer="-1.00" shape="728823.179538,623286.312322 728838.513554,623290.466043 728863.251552,623296.885887 728865.865073,623287.490763 728825.592741,623276.963463 728823.179538,623286.312322"/>
    <poly id="122432823" type="building.apartments" color="255,230,230" fill="1" layer="-1.00" shape="728752.216973,623129.925819 728769.727406,623067.986381 728761.684556,623065.541151 728744.269694,623127.857212 728752.216973,623129.925819"/>
    <poly id="122432824" type="building.apartments" color="255,230,230" fill="1" layer="-1.00" shape="728645.319011,623198.296776 728639.869367,623196.815573 728648.076467,623167.660579 728663.810467,623111.710780 728655.730178,623109.732335 728629.386671,623199.944715 728638.291227,623202.437249 728638.752593,623200.800821 728644.063403,623202.638612 728643.310039,623205.243713 728651.661030,623207.563797 728678.001518,623116.108017 728669.801054,623113.797597 728645.319011,623198.296776"/>
    <poly id="122432825" type="building.apartments" color="255,230,230" fill="1" layer="-1.00" shape="728717.579213,623032.489354 728730.895003,622986.155135 728722.919363,622983.753730 728709.485925,623030.022447 728717.579213,623032.489354"/>
    <poly id="122432826" type="building.yes" color="255,230,230" fill="1" layer="-1.00" shape="728782.027892,623352.691402 728773.778180,623350.447946 728750.074250,623434.129025 728758.090680,623436.474556 728782.027892,623352.691402"/>
    <poly id="122432827" type="building.yes" color="255,230,230" fill="1" layer="-1.00" shape="728737.250631,623260.057095 728759.973395,623266.473212 728762.169356,623258.047891 728751.010261,623255.010023 728739.549297,623251.886171 728737.250631,623260.057095"/>
    <poly id="122432828" type="building.house" color="255,230,230" fill="1" layer="-1.00" shape="728664.066666,623242.832368 728645.725562,623307.011540 728653.650186,623309.357818 728672.144880,623245.499212 728664.066666,623242.832368"/>
    <poly id="122432829" type="building.apartments" color="255,230,230" fill="1" layer="-1.00" shape="728628.578692,623093.931700 728636.831546,623096.474743 728658.266810,623021.496934 728649.815263,623019.177780 728628.578692,623093.931700"/>
    <poly id="122432830" type="building.yes" color="255,230,230" fill="1" layer="-1.00" shape="728591.235393,623222.229822 728599.612611,623224.671731 728600.626578,623221.320297 728603.309377,623222.039071 728607.082040,623223.047420 728606.059501,623226.376727 728614.188759,623229.131852 728617.694430,623217.696471 728594.474695,623210.930157 728591.235393,623222.229822"/>
    <poly id="122432832" type="building.yes" color="255,230,230" fill="1" layer="-1.00" shape="728747.576403,623335.925940 728755.122500,623338.042705 728774.030638,623271.804515 728765.780832,623269.561067 728747.576403,623335.925940"/>
    <poly id="122432833" type="building.apartments" color="255,230,230" fill="1" layer="-1.00" shape="728679.909582,623109.095418 728701.011010,623035.042396 728692.927949,623032.775261 728672.000643,623106.660139 728679.909582,623109.095418"/>
    <poly id="122432834" type="building.school" color="255,230,230" fill="1" layer="-1.00" shape="728907.049750,623368.112784 728885.202248,623322.772780 728878.300482,623326.079137 728876.535426,623326.917199 728883.906212,623342.525620 728881.758171,623343.544896 728891.733305,623364.924701 728894.265261,623363.824130 728898.442849,623372.400956 728900.864341,623371.112669 728907.049750,623368.112784"/>
    <poly id="122432836" type="building.apartments" color="255,230,230" fill="1" layer="-1.00" shape="728670.592599,622948.924864 728678.794700,622951.390712 728686.031001,622926.586048 728677.562941,622924.300322 728670.592599,622948.924864"/>
    <poly id="122432837" type="building.yes" color="255,230,230" fill="1" layer="-1.00" shape="728811.188165,623360.757403 728802.898217,623358.680832 728780.480687,623443.138097 728787.248090,623445.162238 728811.188165,623360.757403"/>
    <poly id="122432838" type="building.yes" color="255,230,230" fill="1" layer="-1.00" shape="728825.801361,623364.751279 728817.401061,623362.498076 728794.170560,623447.673462 728801.940947,623449.643843 728805.069917,623441.731654 728825.801361,623364.751279"/>
    <poly id="122432839" type="building.yes" color="255,230,230" fill="1" layer="-1.00" shape="728790.424947,623347.428004 728798.441769,623349.806886 728817.205641,623286.889896 728809.474305,623284.641561 728790.424947,623347.428004"/>
    <poly id="122432840" type="building.apartments" color="255,230,230" fill="1" layer="-1.00" shape="728723.209609,623121.325674 728744.472873,623046.649517 728736.537701,623044.991607 728714.919154,623119.226997 728723.209609,623121.325674"/>
    <poly id="122432841" type="building.yes" color="255,230,230" fill="1" layer="-1.00" shape="728580.913604,623288.976557 728599.612611,623224.671731 728591.235393,623222.229822 728573.014433,623286.674530 728580.913604,623288.976557"/>
    <poly id="122432842" type="building.apartments" color="255,230,230" fill="1" layer="-1.00" shape="728688.637175,623023.766599 728714.680331,622935.267124 728706.855463,622932.897635 728680.663221,623021.542869 728688.637175,623023.766599"/>
    <poly id="122432843" type="building.yes" color="255,230,230" fill="1" layer="-1.00" shape="728794.333691,623279.708901 728802.819060,623282.105621 728804.043817,623278.929895 728810.121440,623280.505284 728809.482563,623284.630381 728817.205641,623286.889896 728820.991554,623274.985687 728797.627046,623267.898099 728794.333691,623279.708901"/>
    <poly id="122432844" type="building.apartments" color="255,230,230" fill="1" layer="-1.00" shape="728701.927559,623220.783520 728709.239239,623222.858019 728735.733537,623132.577919 728727.786878,623130.575941 728701.927559,623220.783520"/>
    <poly id="122432845" type="building.yes" color="255,230,230" fill="1" layer="-1.00" shape="728624.597497,623301.213717 728643.202327,623237.531647 728634.986717,623235.376849 728616.664491,623298.867549 728624.597497,623301.213717"/>
    <poly id="122432846" type="building.apartments" color="255,230,230" fill="1" layer="-1.00" shape="728734.519708,623027.712315 728739.023805,623012.115233 728730.513635,623009.785430 728726.137270,623025.625586 728734.519708,623027.712315"/>
    <poly id="122432848" type="building.yes" color="255,230,230" fill="1" layer="-1.00" shape="728854.545928,623373.087798 728846.169179,623370.667801 728822.745948,623455.833784 728831.532021,623458.216625 728854.545928,623373.087798"/>
    <poly id="122432849" type="building.yes" color="255,230,230" fill="1" layer="-1.00" shape="728726.194853,623329.830416 728747.103602,623262.929497 728737.250631,623260.057095 728717.885526,623327.476552 728726.194853,623329.830416"/>
    <poly id="122432850" type="building.apartments" color="255,230,230" fill="1" layer="-1.00" shape="728766.437233,623133.878843 728780.641417,623085.948717 728771.927546,623083.287685 728758.790479,623131.751900 728766.437233,623133.878843"/>
    <poly id="122432851" type="building.apartments" color="255,230,230" fill="1" layer="-1.00" shape="728615.622717,623188.448893 728615.888174,623189.112576 728609.823101,623187.104221 728634.828421,623103.155159 728626.049174,623100.661456 728599.660822,623193.194854 728607.325740,623195.476898 728612.897032,623197.445461 728622.170564,623200.045549 728649.204200,623107.628332 728640.810453,623105.219827 728615.622717,623188.448893"/>
    <poly id="122432852" type="building.yes" color="255,230,230" fill="1" layer="-1.00" shape="728649.820018,623238.724355 728657.535459,623241.050390 728658.762188,623237.197349 728665.091673,623238.870187 728664.066666,623242.832368 728672.144880,623245.499212 728675.533047,623234.009446 728653.094201,623227.568728 728649.820018,623238.724355"/>
    <poly id="122432853" type="building.apartments" color="255,230,230" fill="1" layer="-1.00" shape="728773.088534,623242.557458 728779.100439,623244.255566 728779.902601,623242.393910 728781.758265,623243.198192 728802.883369,623170.721839 728800.621328,623163.115335 728796.676583,623162.485987 728773.088534,623242.557458"/>
    <poly id="122432855" type="leisure.playground" color="207,245,201" fill="1" layer="-2.00" shape="728661.409842,623376.323920 728680.746572,623381.960951 728694.200396,623336.180469 728674.863557,623330.543401 728661.409842,623376.323920"/>
    <poly id="122432856" type="building.yes" color="255,230,230" fill="1" layer="-1.00" shape="728802.490407,623250.476840 728825.213139,623256.893162 728827.857693,623247.242370 728805.050588,623240.749107 728802.490407,623250.476840"/>
    <poly id="122432857" type="building.apartments" color="255,230,230" fill="1" layer="-1.00" shape="728651.287221,623100.547472 728672.401730,623027.027173 728664.284475,623024.682671 728643.161366,623098.169767 728651.287221,623100.547472"/>
    <poly id="122432858" type="building.apartments" color="255,230,230" fill="1" layer="-1.00" shape="728730.359302,623228.678372 728738.675855,623230.898951 728764.996644,623140.809333 728757.088599,623138.462776 728730.359302,623228.678372"/>
    <poly id="122432859" type="building.yes" color="255,230,230" fill="1" layer="-1.00" shape="728883.630466,623381.121486 728875.639312,623378.797785 728850.906991,623463.509560 728858.931197,623465.799615 728883.630466,623381.121486"/>
    <poly id="122432860" type="building.house" color="255,230,230" fill="1" layer="-1.00" shape="728780.352428,623273.555244 728761.349665,623339.516730 728769.683116,623341.770493 728788.794860,623275.830218 728780.352428,623273.555244"/>
    <poly id="122432861" type="building.apartments" color="255,230,230" fill="1" layer="-1.00" shape="728694.258262,623113.357980 728715.765627,623038.879302 728707.349436,623036.759601 728686.066682,623111.102972 728694.258262,623113.357980"/>
    <poly id="122432862" type="building.yes" color="255,230,230" fill="1" layer="-1.00" shape="728880.636616,623312.045638 728873.810065,623297.409192 728869.212930,623299.450557 728867.606341,623296.656532 728861.977923,623299.307069 728870.153209,623316.884271 728873.234164,623315.467695 728880.636616,623312.045638"/>
    <poly id="122432863" type="building.apartments" color="255,230,230" fill="1" layer="-1.00" shape="728687.361786,623216.534079 728695.218353,623218.747807 728721.353339,623128.515422 728712.861268,623126.318706 728687.361786,623216.534079"/>
    <poly id="122432864" type="building.apartments" color="255,230,230" fill="1" layer="-1.00" shape="728651.627495,623013.542817 728659.955069,623016.018572 728676.500830,622959.184111 728668.524622,622956.727256 728651.627495,623013.542817"/>
    <poly id="122432865" type="building.house" color="255,230,230" fill="1" layer="-1.00" shape="728804.749040,623351.802032 728812.915433,623354.079609 728831.128070,623288.536440 728823.179538,623286.312322 728804.749040,623351.802032"/>
    <poly id="122432866" type="building.apartments" color="255,230,230" fill="1" layer="-1.00" shape="728737.570126,623125.965705 728758.792956,623051.423203 728750.525031,623049.057807 728729.688387,623123.752165 728737.570126,623125.965705"/>
    <poly id="122432867" type="building.yes" color="255,230,230" fill="1" layer="-1.00" shape="728700.339617,623419.493969 728714.716810,623369.607962 728724.201738,623336.688361 728716.152362,623334.409790 728692.189256,623417.138651 728700.339617,623419.493969"/>
    <poly id="122432868" type="building.yes" color="255,230,230" fill="1" layer="-1.00" shape="728869.200883,623377.081371 728860.782542,623374.683951 728837.318485,623459.972395 728844.616241,623461.480914 728869.200883,623377.081371"/>
    <poly id="122432869" type="building.yes" color="255,230,230" fill="1" layer="-1.00" shape="728738.907326,623340.714509 728730.831836,623338.325138 728706.562618,623421.423200 728714.889499,623423.876810 728730.604263,623369.459498 728738.907326,623340.714509"/>
    <poly id="122432870" type="building.house" color="255,230,230" fill="1" layer="-1.00" shape="728595.504073,623293.192243 728614.188759,623229.131852 728606.059501,623226.376727 728587.303988,623290.904121 728595.504073,623293.192243"/>
    <poly id="122432871" type="building.apartments" color="255,230,230" fill="1" layer="-1.00" shape="728703.170712,623028.105172 728721.449254,622965.148092 728713.524280,622962.801737 728695.205441,623025.914654 728703.170712,623028.105172"/>
    <poly id="122432872" type="building.yes" color="255,230,230" fill="1" layer="-1.00" shape="728788.794860,623275.830218 728791.176336,623266.670390 728768.720977,623260.229473 728765.780832,623269.561067 728788.794860,623275.830218"/>
    <poly id="122432874" type="building.yes" color="255,230,230" fill="1" layer="-1.00" shape="728657.535459,623241.050390 728649.820018,623238.724355 728631.137125,623303.006688 728639.127719,623305.252408 728650.951422,623264.017041 728657.535459,623241.050390"/>
    <poly id="122432875" type="building.apartments" color="255,230,230" fill="1" layer="-1.00" shape="728645.365956,623012.002585 728671.367711,622922.703933 728657.407670,622918.904092 728631.120613,623008.083335 728645.365956,623012.002585"/>
    <poly id="122432876" type="building.yes" color="255,230,230" fill="1" layer="-1.00" shape="728556.869844,623342.417458 728564.947887,623345.073080 728579.113457,623295.888251 728570.846162,623293.567469 728556.869844,623342.417458"/>
    <poly id="122432877" type="building.yes" color="255,230,230" fill="1" layer="-1.00" shape="728620.459262,623231.649016 728628.667142,623233.870486 728629.906634,623229.595415 728636.162952,623231.490969 728634.986717,623235.376849 728643.202327,623237.531647 728646.453752,623225.732268 728623.956838,623219.347696 728620.459262,623231.649016"/>
    <poly id="122432879" type="building.house" color="255,230,230" fill="1" layer="-1.00" shape="728732.747833,623331.268065 728741.878894,623333.858530 728759.973395,623266.473212 728752.150763,623264.303510 728732.747833,623331.268065"/>
    <poly id="122432880" type="building.yes" color="255,230,230" fill="1" layer="-1.00" shape="728527.468500,623367.563208 728528.326881,623369.031836 728540.074455,623372.408033 728541.680172,623371.526969 728564.675785,623291.915429 728550.595682,623287.728332 728527.468500,623367.563208"/>
    <poly id="122432881" type="building.apartments" color="255,230,230" fill="1" layer="-1.00" shape="728665.760433,623104.708888 728686.989967,623030.954400 728678.638891,623028.645376 728657.617968,623102.342425 728665.760433,623104.708888"/>
    <poly id="122432882" type="building.yes" color="255,230,230" fill="1" layer="-1.00" shape="728898.166874,623384.960782 728889.975977,623382.738853 728865.348814,623467.982530 728873.830523,623470.012971 728890.626892,623411.300263 728898.166874,623384.960782"/>
    <poly id="122432883" type="building.yes" color="255,230,230" fill="1" layer="-1.00" shape="728554.418302,623350.312308 728552.167865,623358.249687 728574.826101,623364.932294 728577.324088,623356.637315 728554.418302,623350.312308"/>
    <poly id="122432884" type="building.yes" color="255,230,230" fill="1" layer="-1.00" shape="728767.397611,623348.664464 728759.289419,623346.353087 728735.417783,623429.969165 728744.490395,623432.582384 728767.397611,623348.664464"/>
    <poly id="122432886" type="building.house" color="255,230,230" fill="1" layer="-1.00" shape="728775.828833,623343.478450 728783.978521,623345.756151 728802.561395,623282.274568 728794.333691,623279.708901 728775.828833,623343.478450"/>
    <poly id="122432888" type="building.apartments" color="255,230,230" fill="1" layer="-1.00" shape="728759.111298,623238.635463 728767.026040,623240.815416 728793.188746,623149.883570 728785.147032,623147.549333 728761.441438,623229.353974 728755.459854,623227.322514 728778.737160,623145.333103 728771.148439,623143.150091 728744.112018,623234.523192 728759.111298,623238.635463"/>
    <poly id="122432889" type="building.house" color="255,230,230" fill="1" layer="-1.00" shape="728566.181588,623284.828843 728588.413896,623209.376995 728574.445058,623205.477480 728565.683767,623235.248411 728561.274819,623250.234072 728564.270852,623251.360701 728562.225259,623258.852043 728559.042312,623258.304512 728555.796189,623260.833048 728553.652137,623268.525166 728555.143574,623273.296501 728552.514223,623280.959857 728566.181588,623284.828843"/>
    <poly id="122432890" type="building.yes" color="255,230,230" fill="1" layer="-1.00" shape="728571.285663,623346.745758 728579.543497,623348.955600 728593.098323,623299.732108 728585.514484,623298.059975 728571.285663,623346.745758"/>
    <poly id="122432891" type="building.apartments" color="255,230,230" fill="1" layer="-1.00" shape="728674.426471,623019.969072 728700.438572,622930.848078 728692.221287,622928.548888 728666.227766,623017.858488 728674.426471,623019.969072"/>
    <poly id="122432892" type="building.yes" color="255,230,230" fill="1" layer="-1.00" shape="728752.976670,623344.668909 728744.819231,623342.457933 728721.194761,623425.660949 728729.412929,623428.115591 728752.976670,623344.668909"/>
    <poly id="122432893" type="building.yes" color="255,230,230" fill="1" layer="-1.00" shape="728585.537704,623350.553787 728593.923555,623353.040017 728608.164145,623303.810134 728599.697014,623301.580012 728585.537704,623350.553787"/>
    <poly id="122432896" type="building.apartments" color="255,230,230" fill="1" layer="-1.00" shape="728787.554065,623246.830210 728796.107510,623249.348418 728803.773079,623223.040979 728810.734254,623197.417393 728802.215755,623195.065382 728787.554065,623246.830210"/>
    <poly id="122432897" type="building.yes" color="255,230,230" fill="1" layer="-1.00" shape="728839.972607,623368.882540 728831.890894,623366.715171 728808.178233,623451.317662 728816.989505,623453.711353 728839.972607,623368.882540"/>
    <poly id="122560830" type="building.yes" color="255,230,230" fill="1" layer="-1.00" shape="728530.344711,623464.774590 728544.280757,623416.135862 728536.315649,623413.923318 728522.228101,623462.452454 728530.344711,623464.774590"/>