<?xml version="1.0" encoding="UTF-8"?>

<!-- generated on 2021-11-01 11:35:07 by Eclipse SUMO duarouter Version 1.10.0
<configuration xmlns:xsi="http://www.w3.org/2001/XMLSchema-instance" xsi:noNamespaceSchemaLocation="http://sumo.dlr.de/xsd/duarouterConfiguration.xsd">

    <input>
        <net-file value="C:\Users\juane\Sumo\2021-11-01-11-34-18\osm.net.xml"/>
        <additional-files value="C:\Users\juane\Sumo\2021-11-01-11-34-18\osm_stops.add.xml,C:\Users\juane\Sumo\2021-11-01-11-34-18\osm_pt.rou.xml"/>
        <route-files value="C:\Users\juane\Sumo\2021-11-01-11-34-18\osm.pedestrian.trips.xml"/>
    </input>

    <output>
        <output-file value="C:\Users\juane\Sumo\2021-11-01-11-34-18\osm.pedestrian.rou.xml"/>
        <alternatives-output value="C:\Users\juane\Sumo\2021-11-01-11-34-18\osm.pedestrian.rou.alt.xml"/>
    </output>

    <time>
        <begin value="0"/>
        <end value="3600"/>
    </time>

    <report>
        <no-warnings value="true"/>
        <ignore-errors value="true"/>
        <no-step-log value="true"/>
    </report>

</configuration>
-->

<routes xmlns:xsi="http://www.w3.org/2001/XMLSchema-instance" xsi:noNamespaceSchemaLocation="http://sumo.dlr.de/xsd/routes_file.xsd">
    <vType id="ped_pedestrian" vClass="pedestrian"/>
    <person id="ped1" type="ped_pedestrian" depart="0.33">
        <walk edges="309189479 550888669#1 294123479#0 44866136 753095026#0 886633773#0 -478719436 -144430093#0 -126755075#0 -76172454#1 -76172454#0 114574157#1 114574157#2 4746225#0 4746225#1 4746225#2 4746225#4 4746225#5 136362730#1 886806852#1 886806851#1 753601773#0 753601773#1 886806853#0 753508763#5 753508763#4 753508763#3" busStop="-3398928329"/> <!-- Paral·lel -->
        <ride busStop="-3398928297" lines="L3:1" intended="pt_subway_L3:1.1" depart="891.00"/> <!-- Drassanes -->
        <walk edges="907164235#0 126336714#3 789706431 126336727#2 126336727#1 906395262#2 239117584#0"/>
    </person>
    <person id="ped2" type="ped_pedestrian" depart="0.66">
        <walk edges="886633761#0 886633761#1 886633758#0 753601777#1 4746227#2 4746867#1 4746867#0 457712229#1 457712229#0 457712231#1 10511051#3 10511051#2 10511051#1 886806843#2 789706444#0"/>
    </person>
    <person id="ped3" type="ped_pedestrian" depart="1.00">
        <walk edges="911389016#4 911389016#5 911389016#6 911389016#7 753752125#1 753752125#2 -10851867#1 -10851867#3 -10851867#4 753752145#0 886806841#6 886806841#5 886806841#4 886806841#3 886806841#2 886806841#1 886806841#0 777186748#0 777186748#1 886815085 789706430#0 126336727#2 126336727#1 126336727#0 126336713#1"/>
    </person>
    <person id="ped6" type="ped_pedestrian" depart="1.99">
        <walk edges="-295215808#5 208855944#4 208855944#3 208855944#2 208855944#1 895073061#1 902208629#0 907164244 777186739#0 86772180#6 11297310#1 753752147#1 210285909#2"/>
    </person>
    <person id="ped13" type="ped_pedestrian" depart="4.32">
        <walk edges="126336728#1 239117583#1 239117583#0 8380809 126399551#5 126399551#4 126399551#3 126399551#2 126399551#1 280407883#0 280407883#1 280407883#2 280407883#3 280407884 126397527#0 -126397527#1 -126397527#2 126397527#3"/>
    </person>
    <person id="ped14" type="ped_pedestrian" depart="4.65">
        <walk edges="893988157 893988158#1 893988158#0 753508663#2 753508663#1 753508663#0 191703316#6 -4746228#1 76168863#6 76168863#7 76168863#9 76168863#10 261716933#0 753601773#0 886806851#0 767720904#1 553309959#1 553309959#0 789706447#1 753752151#0 789706447#0 457712231#3 457712231#2 880513897#3 895073063#0 895073064#2 895073064#1 457712232#0 753708198#1"/>
    </person>
    <person id="ped15" type="ped_pedestrian" depart="4.98">
        <walk edges="893832395#7 893832409#11 893832395#5 789706466#0 893832400#3 893832400#2 893832400#1 893832400#0 914739715#0 914739728#1 914739728#0 914739730#0 457714540#3 556049572#2 556049572#3 867009429" busStop="5609791818"/> <!-- Paral·lel - Vila i Vilà -->
        <ride busStop="5609791816" lines="V11:1" intended="pt_bus_V11:1.0" depart="469.00"/> <!-- Paral·lel - Drassanes -->
        <walk edges="880513895#3 4746864#7 4746864#6 4746864#5 4746864#4 753601761#1 886633743#0 886633743#1"/>
    </person>
    <person id="ped17" type="ped_pedestrian" depart="5.65">
        <walk edges="4743364 126334601#6 126334601#7 126334601#8 893921397#0 753752133#0 4743368#1 -10851867#3 10851867#4 753752145#3 886806842#0 897318845#0 86772180#4 86772180#3 86772180#1 880513897#2 753708191#1 457712230#5 4746861#6 4746861#5 4746861#4 4746861#3 4746861#1 753508686#1 893954157#0 753508685#0"/>
    </person>
    <person id="ped18" type="ped_pedestrian" depart="5.98">
        <walk edges="893921397#0 753752133#0 18618300#3 18618300#4 -295215797#1 -295215797#2 -295215797#3 295215798#1 295215798#2 753752138#0"/>
    </person>
    <person id="ped19" type="ped_pedestrian" depart="6.31">
        <walk edges="895747518 136363076#4 753601774#0 93994367#1 86772210#0 86772210#1 136362730#0 136362730#1 136362730#2 136362730#3 136362730#4 136362730#5 136362730#6 136362730#7 136362730#8 136362730#9 553309964#0 553309964#1 896218296#1 553309966#0 553309966#1 753601760#0 886633743#0 893954161#1 753601748#1"/>
    </person>
    <person id="ped20" type="ped_pedestrian" depart="6.64">
        <walk edges="880513897#5 457712226#0 457712231#2 880513897#3 895073063#0 895073064#2 895073064#1 185961564#6 185961564#5 753708196#2 294872798#0 462400263 294871187#1 294871187#0 498952132 245672930 -126395040 -498952134"/>
    </person>
    <person id="ped22" type="ped_pedestrian" depart="7.31">
        <walk edges="126336685#6 126336706 126336735 18833113#0 18833113#1 18833113#2 216972188 18832345#1 4747016#0 4747016#1 4747015#3 4747015#4 19910145#0 416454322#1 126328434#1 126328434#2 881252835#5 881252835#4 246640824#2"/>
    </person>
    <person id="ped23" type="ped_pedestrian" depart="7.64">
        <walk edges="126426430#1 -4079513#1 -4079513#0" busStop="-5643768378"/> <!-- Portal de la Pau -->
        <ride busStop="5603009323" lines="H14:1" intended="pt_bus_H14:1.0" depart="384.00"/> <!-- Metro Paral·lel -->
        <walk edges="880513897#5 457712224#3 789706447#0 753752151#0 789706447#1 753752151#1 315441162#1"/>
    </person>
    <person id="ped24" type="ped_pedestrian" depart="7.97">
        <walk edges="76168863#9 553309961#7 753601789#0 893945970 893945965#1 93994367#1 867009429 556049572#3 556049572#2 457714540#3 895073036#3 895073036#4 895073035#0 457712223#0 895073035#1 457714546#0 457712223#2"/>
    </person>
    <person id="ped25" type="ped_pedestrian" depart="8.30">
        <walk edges="457712232#5 185961564#6 185961564#5 753708196#2 753708196#1 753708196#0 881252851 126447079#0 8380803#2 881322850#0 881252850#0 881252844#1 126336692#1 126336692#0 44045952#1 44045952#0 881252843#1 881252843#0 231284637#1 231284633#1 231284639#1"/>
    </person>
    <person id="ped28" type="ped_pedestrian" depart="9.30">
        <walk edges="16367702#2 16367702#1 18506598#3 18506598#2 553309966#5 753601756#0 886633742#0"/>
    </person>
    <person id="ped29" type="ped_pedestrian" depart="9.63">
        <walk edges="136363076#8 867009429 753508763#2 457714533#0 457714533#3 789706458#3 789706457#0 789706458#4 10853180#2 10853180#1 10853180#0 62213293#7 62213293#6 62213293#5 62213293#4 62213293#3 62213293#2 62213293#1 10851867#1 4743368#1"/>
    </person>
    <person id="ped30" type="ped_pedestrian" depart="9.96">
        <walk edges="970910299#1 746391215#1 359739472#3 4755002#4 4755002#5 4755002#6 4755002#7 4755002#8 4755002#9 4755002#10 4755002#11 4755002#12 4755002#13 4755002#14 766520483#0 970754076#1 766520484#1 146257421#2 146246750#1 766520485#0"/>
    </person>
    <person id="ped31" type="ped_pedestrian" depart="10.30">
        <walk edges="753508696#1 753508659 753508660#1 753508660#0 4746213 249938214 93994367#1 753508763#2 457714533#0 457714533#3 789706458#3 789706457#0 789706458#4 789706459"/>
    </person>
    <person id="ped32" type="ped_pedestrian" depart="10.63">
        <walk edges="893954151 753601771#1 136362730#7 457712229#1 457712229#0 457712231#1 10511051#3 10511051#2 10511051#1 10511051#0 10055641#1 753752150#0 789706444#2 753752150#1 789706448#1 18502409#0 18502193#2 18502193#1 18502193#0 62213293#2 62213293#1 753752125#3 886811587#1 553234917#0 10851731#10 10851731#9 10851731#8 10851731#7 10851731#6 10851731#5 886813234#0"/>
    </person>
    <person id="ped40" type="ped_pedestrian" depart="13.28">
        <walk edges="753508706#1 4744807#1 753508652#0 753508652#1 753508653#0 556049572#2 556049572#3 867009429" busStop="5609791818"/> <!-- Paral·lel - Vila i Vilà -->
        <ride busStop="5609791816" lines="V11:1" intended="pt_bus_V11:1.0" depart="469.00"/> <!-- Paral·lel - Drassanes -->
        <walk edges="880513895#3 753708199#1 753679123#0 294872798#6 880513895#8 8380793 548337280 294871189"/>
    </person>
    <person id="ped42" type="ped_pedestrian" depart="13.95">
        <walk edges="4746867#4 753601776#1 886633757#2 753601779#1 4746227#4 4746227#5 553309961#0 553309961#1 553309961#3 553309961#4 553309961#7 753601789#0 893945970 893945965#1 93994367#1 753508763#2 457714533#0 457714533#3 789706458#3 789706457#0 789706458#4 881656434#0 237649291#2 237649292#0 237649292#1 906750214 237649293#0 237649293#1 237649293#3"/>
    </person>
    <person id="ped45" type="ped_pedestrian" depart="14.95">
        <walk edges="126442798#4 126442803#0 126442803#1 126442801#1 126442812#0 18508391#0 548337280 8380793 880513895#8 294872798#6 753679123#0 753708199#1 185961564#5 185961564#6" busStop="5603009324"/> <!-- Paral·lel - Drassanes -->
        <ride busStop="5603006494" lines="V11:0" intended="pt_bus_V11:0.0" depart="404.00"/> <!-- Pl. Josep Maria Folch -->
        <walk edges="237649292#0 237649292#1 906750214 237649293#0 237649293#1 753752156#1"/>
    </person>
    <person id="ped47" type="ped_pedestrian" depart="15.61">
        <walk edges="10851731#9 10851731#10 553234917#0 886811587#1 753752125#3 10851867#1 4743368#1 4743368#4 10427092#0 10427092#1 126336730#1 126336720#0 126336720#1 126336717#0 239117583#9 4743458#1"/>
    </person>
    <person id="ped48" type="ped_pedestrian" depart="15.94">
        <walk edges="97723306#0 746391253#0 911461604#0 911461603#0 83711428#1 83711428#2 83711428#3 971031378#0 970910272#1 746391229#0 237994920#0 746391230#0"/>
    </person>
    <person id="ped50" type="ped_pedestrian" depart="16.61">
        <walk edges="-126754498#3 126754498#2 -16367702#1 -16367702#2 -16367702#3 413441089#11 413441089#10 413441089#9 413441089#8 753508682#1 -16367702#6 -553309963#0 553309963#1 4746227#0 4746227#1 4746227#2 4746227#3 4746227#4" busStop="8330812749"/> <!-- Piquer - Cabanes -->
        <ride busStop="8330812748" lines="121:1" intended="pt_bus_121:1.0" depart="597.00"/> <!-- Pg de Montjuïc - Nou de la Rambla -->
        <walk edges="314839726#2 314839720#2 314839720#1 753508735#0 886633733 753508739#1 753508739#0 886633731 753508742#0 753508742#1 893913970 753508746#1 4746209#6 886623701#0"/>
    </person>
    <person id="ped51" type="ped_pedestrian" depart="16.94">
        <walk edges="789706452 767720903#2 553309959#0 553309959#1 767720904#1 886806851#0 753601773#0 261716933#0 76168863#10 76168863#9 76168863#7 76168863#6 76168863#4 753508669#1 753508668#0 76168863#1 314839720#2 314839720#1 553306694#1 753439995#1"/>
    </person>
    <person id="ped55" type="ped_pedestrian" depart="18.27">
        <walk edges="906395262#0 906395262#1 906395262#2 239117584#0 246638753 8380803#2 309051278#2 462400263 294872798#2 294872798#3"/>
    </person>
    <person id="ped57" type="ped_pedestrian" depart="18.93">
        <walk edges="9412957#3 -309189477#3 -309189477#4 280408876 280408875 753095025 886633773#0 -478719436 -144430093#0 -126755075#0 -76172454#1 76172459#0 886633770 753508773#1 413441088#3 413441088#2 4746867#4 4746867#3 4746867#1 4746867#0 457712229#1 457712229#0 880513897#3 895073063#0 897318846#0 897318846#1"/>
    </person>
    <person id="ped58" type="ped_pedestrian" depart="19.26">
        <walk edges="359739471#3 4755002#10 4755002#11 4755002#12 4754987#4 4754987#3 4754987#2 4754987#1 4754987#0 293858824#4 293858824#3 293858824#2 293858824#1 766520481#1"/>
    </person>
    <person id="ped59" type="ped_pedestrian" depart="19.60">
        <walk edges="753730060#1 753730059#0 10851770#7 10851770#6 10851770#5 10851770#3 10851770#2 10851770#0 246630085#2 -10851867#1 10851867#3 10851867#4 11297310#1" busStop="8328305434"/> <!-- Av Drassanes - Arc del Teatre -->
        <ride busStop="8328305433" lines="120:0" intended="pt_bus_120:0.0" depart="631.00"/> <!-- Av Drassanes - Pl Portal de la Pau -->
        <walk edges="217108057#0 126336716#2 126336716#3 881252845#2 881252845#1 881252847#0 881252847#1 126447079#0 126447079#1 978362137#0 498952133#0 245672930 450445885#2 542623450#0 542623450#1 542623450#2 542623450#3 542623450#4 126807840#1"/>
    </person>
    <person id="ped60" type="ped_pedestrian" depart="19.93">
        <walk edges="886811587#6 222641683#1 222641683#0 10428232#1 10428232#0 10428187#0 4745025#3 755455134 755455135#1 789706460#2 753752160#0 753752160#1 753752160#2 789706464#0 753752161#1 331574668#1 914739728#0 914739730#0 457714540#3 457714540#0 420762864#4 895024273#0 895024273#1 753508704#0 4746209#3 753508748#1 753508745#0 753508745#1 893913966 753439998#7"/>
    </person>
    <person id="ped62" type="ped_pedestrian" depart="20.59">
        <walk edges="-10851867#3 -10851867#4 753752145#0 886806841#6 886806841#5 886806841#4 886806841#3 886806841#2 886806841#1 886806841#0 777186748#0 217108056#0 -217108057#0 -217108057#1 241975841#1 241975841#0 8380809 126399551#5 126399551#4 126399551#3 914891586#0 914891586#2" busStop="5643768378"/> <!-- Portal de la Pau -->
        <ride busStop="5609791813" lines="N0_tornada:0" intended="pt_bus_N0_tornada:0.1" depart="770.00"/> <!-- Moll de la Fusta -->
        <walk edges="4079513#1 4079513#2"/>
    </person>
    <person id="ped64" type="ped_pedestrian" depart="21.26">
        <walk edges="907164225#1 10852812#0 18504649#1 18504649#0 62213293#3 62213293#4 62213293#5 62213293#6 62213293#7 10853180#0 10853180#1 10853180#2 789706458#4 789706457#0 789706458#3 457714533#3 457714533#0 753508763#2 93994367#1 893945965#0 893945966"/>
    </person>
    <person id="ped65" type="ped_pedestrian" depart="21.59">
        <walk edges="370605628 -10851867#1 -10851867#3 -10851867#4 239662764#4 239662764#3 886815086#1 11297310#3 11297310#4 714064661#0 777186746 886815084 881252845#1 881252847#0 881252847#1 126447079#0 126447079#1 978362137#0 978362137#1 978362136 881252849#0 881252849#1 881252849#2 126442804#0 126442796#2 297217674 -297217667#0 -987367175"/>
    </person>
    <person id="ped67" type="ped_pedestrian" depart="22.25">
        <walk edges="126336710#1 920602947#4 920602947#5 920602947#7 920602947#8" busStop="104459412"/> <!-- La Rambla - Santa Mònica -->
        <ride busStop="6315729763" lines="N15:1" intended="pt_bus_N15:1.0" depart="324.00"/> <!-- Colom - La Rambla -->
        <walk edges="8380809 126399551#5 126399551#4 126399551#3 126399551#2 126399551#1 280407883#0 280407883#1 280407883#2 280407883#3 280407884 126397527#0 -126397527#1 -126397527#2 74074065#6"/>
    </person>
    <person id="ped68" type="ped_pedestrian" depart="22.58">
        <walk edges="114574157#1 114574157#2 4746225#0 4746225#1 4746225#2 4746225#4 4746225#5 136362730#1 886806852#1 886806851#1 886806851#0 767720904#1 553309959#1 553309959#0 18502184#1 -18502184#2 18502193#2 18502193#1 18502193#0 18504649#0 18504649#1 18504649#2 18504649#4 18504649#5 18504649#7 18504649#8 18504649#9 305108019#2 305108019#3 886811584#2"/>
    </person>
    <person id="ped70" type="ped_pedestrian" depart="23.25">
        <walk edges="62213293#4 62213293#3 18502193#0 18502193#1 18502193#2 18502409#0 789706448#1 753752150#1 789706444#2 753752150#0 10055641#1 10511051#0 10511051#1 10511051#2 10511051#3 457712231#1 457712229#0 457712229#1 136362730#7 136362730#8 136362730#9 553309964#0 553309964#1 896218296#1 553309965#0 -16367702#6 753508682#1 413441089#8 413441089#9 413441089#10 413441089#11 -16367702#3 -16367702#2 753508679#1"/>
    </person>
    <person id="ped71" type="ped_pedestrian" depart="23.58">
        <walk edges="295215798#3 295215798#2 295215798#1 -295215797#3 -295215797#2 -295215797#1 18618300#4 18618300#3 18618300#0 18618230 62126123#1 62126123#0 902208621#2"/>
    </person>
    <person id="ped73" type="ped_pedestrian" depart="24.24">
        <walk edges="753439998#7 753439998#6 753439998#5 753439998#4 753439998#3 753439998#2 192239287 893913958 886633733 753508735#0 314839720#1 314839720#2 -314839726#2 -314839726#1 -314839726#0 -413441088#4 -413441088#3 -413441088#2 -413441088#1 -413441088#0 -553309962#0 -553309963#1 -553309963#0 753508683#1 886633749#2 886633748 753601762#1 753601762#0 886633743#2"/>
    </person>
    <person id="ped74" type="ped_pedestrian" depart="24.58">
        <walk edges="210285911#1 886806838#0 753752135#1 18618300#0 18618230 62126123#1 62128953 388782112#1"/>
    </person>
    <person id="ped75" type="ped_pedestrian" depart="24.91">
        <walk edges="970910325#2 970910325#1 4079509#18 -4079509#17 -4079509#16 -4079509#15 -4079509#14 -4079509#13 -4079509#12 -4079509#11 -4079509#10 -4079509#9 -4079509#8 -4079509#7 -4079509#6 -4079509#5 -4079509#4 -4079509#3 4755005#11 4755005#10 4755005#9 4755005#8 746391150#1 970863005 766520539#4"/>
    </person>
    <person id="ped76" type="ped_pedestrian" depart="25.24">
        <walk edges="502813025#0 280405225#4 280405225#3 359739477#0 359739477#1 291731095#2 746383954#1 359739476#5 4079509#1 4079509#3 4079509#4 4079509#5 746391204#1"/>
    </person>
    <person id="ped77" type="ped_pedestrian" depart="25.57">
        <walk edges="126449085#3 43387289#2 245672931#2 246638753 8380803#2" busStop="5603009325"/> <!-- Les Drassanes -->
        <ride busStop="5603009323" lines="N0:0" intended="pt_bus_N0:0.0" depart="179.00"/> <!-- Metro Paral·lel -->
        <walk edges="880513897#5 457712224#3 789706447#0 753752151#0 789706447#1 239838074#2 239838074#4 239838074#5"/>
    </person>
    <person id="ped78" type="ped_pedestrian" depart="25.91">
        <walk edges="417363329 417363325#2 417363325#3 -309189477#4 280408876 280408875 753095025 886633773#0 -478719436 -144430093#0 -126755075#0 -76172454#1 -76172454#0 114574157#1 114574157#2 4746225#0 4746225#1 753601781#1 886806858#0 753601780#1 553309961#4 553309961#7 753601789#0 893945970 893945965#1 93994367#1 753601774#0"/>
    </person>
    <person id="ped80" type="ped_pedestrian" depart="26.57">
        <walk edges="125735929 74074071#3 74074065#3 74074065#4 231284637#0 231284637#1 881252843#0 881252843#1 44045952#0 44045952#1 126336692#0 126336692#1 881252844#1 881252850#0 881322850#0 8380803#2" busStop="5603009325"/> <!-- Les Drassanes -->
        <ride busStop="8163708756" lines="N0:0" intended="pt_bus_N0:0.1" depart="779.00"/> <!-- Paral·lel - Ronda Sant Pau -->
        <walk edges="525586872#2 457714532#4 789706462#0 753752162#2"/>
    </person>
    <person id="ped81" type="ped_pedestrian" depart="26.90">
        <walk edges="245672931#0 245672931#2 246638753 8380803#2" busStop="5603009325"/> <!-- Les Drassanes -->
        <ride busStop="8163708756" lines="N0:0" intended="pt_bus_N0:0.0" depart="179.00"/> <!-- Paral·lel - Ronda Sant Pau -->
        <walk edges="525586872#2 457714540#3 914739730#0 914739728#0 914739728#1"/>
    </person>
    <person id="ped82" type="ped_pedestrian" depart="27.23">
        <walk edges="895304296#0 753679124#0 867009429 753508763#2 753508763#3" busStop="-3398928329"/> <!-- Paral·lel -->
        <ride busStop="-3398928297" lines="L3:1" intended="pt_subway_L3:1.0" depart="291.00"/> <!-- Drassanes -->
        <walk edges="907164235#0 126336714#3 789706431 126336727#2 126336727#1 126336727#0 126336713#1 126336713#0 896336373#1 239117583#0 8380809 126399551#5 126399551#4 126399551#3 126399551#2 126399551#1 280407883#0 280407883#1 280407883#2 280407883#3 280407884 126397534 32016699#1 231284637#1 231284637#0 231284636#0 231284636#1 125734391"/>
    </person>
    <person id="ped86" type="ped_pedestrian" depart="28.56">
        <walk edges="61942879#0 74074071#2 74074071#3 74074065#3 74074065#4 231284637#0 231284637#1 32016699#1 126397534 280407884 280407883#3 280407883#2 280407883#1 280407883#0 126399551#1 126399551#2 126399551#3 126399551#4 126399551#5 8380809 241975841#0 241975841#1 -217108057#1 -217108057#0 217108056#0 777186748#0 886806841#0 886806841#1 886806841#2 886806841#3 886806841#4 886806841#5 886806841#6 753752145#0 -10851867#4 -10851867#3 753752137#0 886815092#0"/>
    </person>
    <person id="ped87" type="ped_pedestrian" depart="28.89">
        <walk edges="893832396#0 893832411#1 237649293#3 753752156#0 753752157#1 4785424#0 4785424#1 4785424#2 4785424#3 4785424#4 305108019#0 305108019#1 305108019#2 305108019#3 886811584#2 753730062#3 10851731#1 10851731#2" busStop="8328305436"/> <!-- Rambla del Raval - Aurora -->
        <ride busStop="8328305433" lines="120:0" intended="pt_bus_120:0.0" depart="495.00"/> <!-- Av Drassanes - Pl Portal de la Pau -->
        <walk edges="217108057#0 -217108057#1 241975841#1 241975841#0 -18833123#0 18833123#1 18833123#2"/>
    </person>
    <person id="ped88" type="ped_pedestrian" depart="29.23">
        <walk edges="126397534 32016699#2 44045952#0 44045952#1 126336692#0 126336692#1 881252844#1 881252850#0 881322850#0 8380803#2 126447079#0 881252851 753708196#0 753708196#1 753708196#2 185961564#5 185961564#6" busStop="5603009324"/> <!-- Paral·lel - Drassanes -->
        <ride busStop="5603009323" lines="H14:1" intended="pt_bus_H14:1.0" depart="551.00"/> <!-- Metro Paral·lel -->
        <walk edges="880513897#5 457712224#3 789706446 550734721#0 550734721#1 550734719#1" busStop="1043786437"/> <!-- Paral·lel -->
        <ride busStop="2526271760" lines="L3:0" intended="pt_subway_L3:0.0" depart="1186.00"/> <!-- Poble Sec -->
        <walk edges="48174566#0"/>
    </person>
    <person id="ped90" type="ped_pedestrian" depart="29.89">
        <walk edges="886633742#0 886633742#1 753601761#0 4746864#4 4746864#5 4746864#6 4746864#7 185961564#5 185961564#6 -295215808#5 208855944#4 208855944#3 208855944#2 208855944#1 208855944#0 18595111#2 18595111#1 886815087#1 886815086#0 886815086#1 886815086#2 886815086#3 886806841#4 235513049#7 4743363#2 4743363#1 295215797#2 295215797#3 295215798#1 295215798#2 753752138#1 789706436#0 789706436#1 789706436#2"/>
    </person>
    <person id="ped92" type="ped_pedestrian" depart="30.55">
        <walk edges="4750617#1 4745024#2 10428187#0 4745025#3 755455134 755455135#1 789706460#2 753752160#0 237649292#0 237649291#2 881656434#0 789706458#4 789706457#0 789706458#3 457714533#3 457714533#0 753508763#2 93994367#1 191703316#1 191703316#3 191703316#6 59837818#0 140318962#2 753508736#1 753508735#0 753508735#1 319180223#1 61892086#1 325293681#2 417398873 417398867"/>
    </person>
    <person id="ped93" type="ped_pedestrian" depart="30.89">
        <walk edges="895304299 753508696#1 753508659 753508660#1 753508660#0 4746213 249938214 93994367#1 867009429" busStop="5609791818"/> <!-- Paral·lel - Vila i Vilà -->
        <ride busStop="5609791816" lines="V11:1" intended="pt_bus_V11:1.0" depart="469.00"/> <!-- Paral·lel - Drassanes -->
        <walk edges="880513895#3 753708199#1 753679123#0 294872798#6 294872798#3 294872798#2 462400263 294871187#1 294871187#0 498952132 245672930 280407888#0"/>
    </person>
    <person id="ped95" type="ped_pedestrian" depart="31.55">
        <walk edges="4809722#0 4809722#1 4809722#2 62125871 126334601#8 126334601#9 126334601#10 126334601#11 10426329#0 10426329#1 62213293#1 62213293#2 62213293#3 62213293#4 62213293#5 62213293#6 62213293#7 239838074#5 753752166#0 789706451#0 789706451#2 767720903#1 315441162#3"/>
    </person>
    <person id="ped98" type="ped_pedestrian" depart="32.55">
        <walk edges="753508680#1 4746864#0 -16367702#3 413441089#11 413441089#10 413441089#9 413441089#8 753508682#1 -16367702#6 -553309963#0 -553309963#1"/>
    </person>
    <person id="ped99" type="ped_pedestrian" depart="32.88">
        <walk edges="995580745 893945983#2 893945983#1"/>
    </person>
    <person id="ped100" type="ped_pedestrian" depart="33.21">
        <walk edges="970882869 746391170#1 4809745#2 359739471#19 359739471#18 359739471#17 359739471#16 359739471#15 359739471#14 359739471#12 359739471#11 359739471#10 359739471#9 970456887#2 746391160#1 970754056"/>
    </person>
    <person id="ped101" type="ped_pedestrian" depart="33.54">
        <walk edges="893988161 895024273#0 420762864#5 556049572#3 867009429 753508763#2 753508763#3" busStop="-3398928329"/> <!-- Paral·lel -->
        <ride busStop="-3398928297" lines="L3:1" intended="pt_subway_L3:1.1" depart="891.00"/> <!-- Drassanes -->
        <walk edges="-18596059#1 -920602947#9 126336726#0 126336703 126336685#5 126336706 126336735 239117583#4 239117583#5 281056199#1 281056199#2 281056199#3 281056199#4 281056199#5 583955912#1 583955913#1 140898448"/>
    </person>
    <person id="ped102" type="ped_pedestrian" depart="33.88">
        <walk edges="74074065#5 231284637#0 231284637#1 32016699#1 126397534 280407884 280407883#3 280407883#2 280407883#1 280407883#0 126399551#1 126399551#2 126399551#3 126399551#4 126399551#5 8380809 241975841#0 241975841#1 -217108057#1 -217108057#0 217108056#0 777186748#0 886806841#0 886806841#1 886806841#2 886806841#3 886806841#4 235513049#8"/>
    </person>
    <person id="ped103" type="ped_pedestrian" depart="34.21">
        <walk edges="4747016#0 18832345#1 216972188 18833113#2 18833113#1 18833113#0 126336735 126336706 126336685#6 126336699 126336715#0 126336715#1 11298017 235513050 4743361#0 4743361#1 295215798#1 -295215797#3 -295215797#2 -295215797#1 18618300#4 18618300#3 18618300#0 126334601#10 126334601#11 10426329#0"/>
    </person>
    <person id="ped105" type="ped_pedestrian" depart="34.87">
        <walk edges="295215798#3 295215798#2 295215798#1 295215797#3 295215797#2 295215797#1 553234915#1 553234915#0 -10851867#4 886806840#0 886815091#0"/>
    </person>
    <person id="ped107" type="ped_pedestrian" depart="35.54">
        <walk edges="970862996 746391207#0 4755005#11 4755005#12 4755005#13 4755005#14 4755005#15 746391210#1 970910296 911461595#0 970216158#12 970216158#13 970216158#14 970216158#15 970216158#16 970216158#17 970216158#18 970910277#2 4079505#9 4079505#8 -4755055#0 971030798"/>
    </person>
    <person id="ped108" type="ped_pedestrian" depart="35.87">
        <walk edges="753508693#1 886633734#2 319181097#1 753508735#0 886623699 753439998#0 753439996#1 753439996#0 886623696#3 886623695"/>
    </person>
    <person id="ped111" type="ped_pedestrian" depart="36.87">
        <walk edges="753508659 753508660#1 893988158#0 753508663#2 753508663#1 753508663#0 191703316#6 -4746228#1 76168863#6 76168863#7 76168863#9 886806848#0"/>
    </person>
    <person id="ped112" type="ped_pedestrian" depart="37.20">
        <walk edges="-920602947#9 -18596059#1 -18596059#2 -18596059#3 -295215808#1 -295215808#2 -295215808#3 -295215808#4 -295215808#5 457712232#3 753708194#3 753708194#0 753708194#4 4746861#6 4746861#5 753601754#1 893954156#1 753601765#0 553309964#1 753601764#1"/>
    </person>
    <person id="ped115" type="ped_pedestrian" depart="38.19">
        <walk edges="126336685#8 126336700 126336725#0 295215798#5 295215798#4 295215798#3 295215798#2 295215798#1 -295215797#3 -295215797#2 -295215797#1 18618300#4"/>
    </person>
    <person id="ped116" type="ped_pedestrian" depart="38.53">
        <walk edges="753601789#0 893945970 893945965#1 93994367#1 753508763#2 753508763#3" busStop="-3398928329"/> <!-- Paral·lel -->
        <ride busStop="-3398928297" lines="L3:1" intended="pt_subway_L3:1.0" depart="291.00"/> <!-- Drassanes -->
        <walk edges="18596059#1 18596059#2 -18595138#1 423945726#0 423945726#1 423945726#2 4743362#1 295215797#3 753752142#1 789706440#1"/>
    </person>
    <person id="ped117" type="ped_pedestrian" depart="38.86">
        <walk edges="249408854#1 249408854#0" busStop="3397396654"/> <!-- Sant Antoni -->
        <ride busStop="3397396636" lines="L2:1" intended="pt_subway_L2:1.1" depart="658.00"/> <!-- Paral·lel -->
        <walk edges="550734721#1 550734721#2" busStop="-3398928329"/> <!-- Paral·lel -->
        <ride busStop="-3398928297" lines="L3:1" intended="pt_subway_L3:1.1" depart="891.00"/> <!-- Drassanes -->
        <walk edges="907164235#0 126336714#3 789706431 126336727#2 126336727#1 126336727#0 126336713#1 126336713#0 896336373#1 239117583#0 8380809 126399551#5 126399551#4 126399551#3 126399551#2 126399551#1 280407883#0 280407883#1 280407883#2 280407883#3 280407884 126397527#0 -126444400#0 126444400#1"/>
    </person>
    <person id="ped119" type="ped_pedestrian" depart="39.52">
        <walk edges="753601788#0 886806855#0 893945970 893945965#1 93994367#1 753508763#2 753508763#3" busStop="-3398928329"/> <!-- Paral·lel -->
        <ride busStop="-3398928297" lines="L3:1" intended="pt_subway_L3:1.0" depart="291.00"/> <!-- Drassanes -->
        <walk edges="18596059#1 18596059#2 -18595138#1 423945726#0 423945726#1 423945726#2 4743362#1 753752140#0"/>
    </person>
    <person id="ped120" type="ped_pedestrian" depart="39.85">
        <walk edges="4785424#1 4785424#0 753752157#0 789706463#1 789706463#0 789706460#0 789706460#1 789706460#2 753752160#0 237649292#0 237649291#2 881656434#0 789706458#4 789706457#0 789706458#3 457714533#3 457714533#0 753508763#2 93994367#1 86772210#0 86772210#1 136362730#0 136362730#1 136362730#2" busStop="8330812752"/> <!-- Vila i Vilà - Lafont -->