<?xml version="1.0" encoding="UTF-8"?>
<!-- generated on 2021-11-01 11:34:46.207549 by $Id: ptlines2flows.py v1_3_1+0313-ccb31df3eb jakob.erdmann@dlr.de 2019-09-02 13:26:32 +0200 $ v1_10_0+0000-83496a5972
  options: 
-->
<routes xmlns:xsi="http://www.w3.org/2001/XMLSchema-instance" xsi:noNamespaceSchemaLocation="http://sumo.dlr.de/xsd/routes_file.xsd">
    <vType id="pt_bus" vClass="bus"/>
    <vType id="pt_tram" vClass="tram"/>
    <vType id="pt_train" vClass="rail"/>
    <vType id="pt_subway" vClass="rail_urban"/>
    <vType id="pt_light_rail" vClass="rail_urban"/>
    <vType id="pt_monorail" vClass="rail"/>
    <vType id="pt_trolleybus" vClass="bus"/>
    <vType id="pt_aerialway" vClass="bus"/>
    <vType id="pt_ferry" vClass="ship"/>
    <route id="pt_subway_L2:0" edges="447856554" >
        <stop busStop="3699659474" duration="30.00" until="31.0"/> <!-- Paral·lel -->
    </route>
    <route id="pt_subway_L2:1" edges="550192971#0 550192971#1" >
        <stop busStop="3397396654" duration="30.00" until="31.0"/> <!-- Sant Antoni -->
        <stop busStop="3397396636" duration="30.00" until="108.0"/> <!-- Paral·lel -->
    </route>
    <route id="pt_bus_N0_tornada:0" edges="4079520#1 914891586#2 4079513#1 4079513#2" >
        <stop busStop="8371290346" duration="30.00" until="33.0"/> <!-- Pg. Colom-Port Vell -->
        <stop busStop="5643768378" duration="30.00" until="81.0"/> <!-- Portal de la Pau -->
        <stop busStop="5609791813" duration="30.00" until="141.0"/> <!-- Moll de la Fusta -->
    </route>
    <route id="pt_bus_D20:0" edges="-4751867#2 -4751867#1 -4751867#0 -4079509#24 -4079509#23 -4079509#22 -4079509#21 -4079509#19 -4079509#18 -4079509#17 -4079509#16 -4079509#15 -4079509#14 -4079509#13 -4079509#12 -4079509#11 -4079509#10 -4079509#9 -4079509#8 -4079509#7 -4079509#6 -4079509#5 -4079509#4 -4079509#3 -4079509#2 359739475#0 359739475#1 359739475#2" >
        <stop busStop="-5728520762" duration="30.00" until="71.0"/> <!-- Platja de la Barceloneta -->
        <stop busStop="-5728520761" duration="30.00" until="125.0"/> <!-- Pg Marítim - Pepe Rubianes -->
        <stop busStop="-5728520760" duration="30.00" until="190.0"/> <!-- Pepe Rubianes -->
    </route>
    <route id="pt_bus_N28:0" edges="291731094#0 291731094#1 291731094#2 902517724#0 906391081 4079509#1 4079509#3 4079509#4 4079509#5 4079509#6 4079509#7 4079509#8 4079509#9 4079509#10 4079509#11 4079509#12 4079509#13 4079509#14 4079509#15 4079509#16 4079509#17 4079509#18 4079509#19 4079509#21 4079509#22 4079509#23 4079509#24 4751867#0 4751867#1 4751867#2" >
    </route>
    <route id="pt_bus_N9:1" edges="920602947#0 920602947#4 920602947#5 920602947#7 920602947#8 920602947#9 906395262#0 906395262#1 906395262#2 239117584#0 246638753 4079520#0 4079520#1 8380809" >
        <stop busStop="104459412" duration="30.00" until="114.0"/> <!-- La Rambla - Santa Mònica -->
        <stop busStop="6315729763" duration="30.00" until="236.0"/> <!-- Colom - La Rambla -->
    </route>
    <route id="pt_bus_N9:0" edges="8380809 239117583#0 239117583#1 239117583#2 239117583#3 239117583#4 239117583#5 239117583#6 239117583#7 239117583#8 239117583#9 239117583#10" >
        <stop busStop="6315729763" duration="30.00" until="38.0"/> <!-- Colom - La Rambla -->
        <stop busStop="5173125170" duration="30.00" until="112.0"/> <!-- La Rambla - Pl. del Teatre -->
        <stop busStop="8210106347" duration="30.00" until="143.0"/> <!-- La Rambla - Pl del Teatre -->
    </route>
    <route id="pt_bus_D20:1" edges="542284837#0 4751867#2" >
    </route>
    <route id="pt_bus_V17:1" edges="4752296#0 4752296#3 4752296#4 4752296#5 4752296#6 427046677#1 126715484#1" >
    </route>
    <route id="pt_bus_N12:1" edges="920602947#0 920602947#4 920602947#5 920602947#7 920602947#8 920602947#9 906395262#0 906395262#1 906395262#2 239117584#0 246638753 4079520#0 4079520#1 8380809" >
        <stop busStop="104459412" duration="30.00" until="148.0"/> <!-- La Rambla - Santa Mònica -->
        <stop busStop="6315729763" duration="30.00" until="326.0"/> <!-- Colom - La Rambla -->
    </route>
    <route id="pt_bus_N12:0" edges="8380809 239117583#0 239117583#1 239117583#2 239117583#3 239117583#4 239117583#5 239117583#6 239117583#7 239117583#8 239117583#9 239117583#10" >
        <stop busStop="6315729763" duration="30.00" until="69.0"/> <!-- Colom - La Rambla -->
        <stop busStop="8210106347" duration="30.00" until="178.0"/> <!-- La Rambla - Pl del Teatre -->
        <stop busStop="5173125170" duration="30.00" until="209.0"/> <!-- La Rambla - Pl. del Teatre -->
        <stop busStop="8210106346" duration="30.00" until="279.0"/> <!-- La Rambla - Liceu -->
    </route>
    <route id="pt_bus_N28:1" edges="-4751867#2 -4751867#1 -4751867#0 -4079509#24 -4079509#23 -4079509#22 -4079509#21 -4079509#19 -4079509#18 -4079509#17 -4079509#16 -4079509#15 -4079509#14 -4079509#13 -4079509#12 -4079509#11 -4079509#10 -4079509#9 -4079509#8 -4079509#7 -4079509#6 -4079509#5 -4079509#4 -4079509#3 -4079509#2 359739475#0 359739475#1 359739475#2 359739475#3 359739475#4" >
        <stop busStop="-5728520762" duration="30.00" until="70.0"/> <!-- Platja de la Barceloneta -->
        <stop busStop="-5728520761" duration="30.00" until="123.0"/> <!-- Pg Marítim - Pepe Rubianes -->
        <stop busStop="-5728520760" duration="30.00" until="187.0"/> <!-- Pepe Rubianes -->
        <stop busStop="2610196515" duration="30.00" until="276.0"/> <!-- Joan de Borbó Comte de Barcelona, 21 -->
    </route>
    <route id="pt_bus_N15:1" edges="920602947#0 920602947#4 920602947#5 920602947#7 920602947#8 920602947#9 906395262#0 906395262#1 906395262#2 239117584#0 246638753 4079520#0 4079520#1 8380809" >
        <stop busStop="104459412" duration="30.00" until="159.0"/> <!-- La Rambla - Santa Mònica -->
        <stop busStop="6315729763" duration="30.00" until="338.0"/> <!-- Colom - La Rambla -->
    </route>
    <route id="pt_bus_150:0" edges="246548945#0 -246548945#0" >
        <stop busStop="8357830511" duration="30.00" until="48.0"/> <!-- Av Miramar - Pl Carlos Ibáñez -->
    </route>
    <route id="pt_bus_V17:0" edges="-126715484#0 -427046677#0 -4752296#5 -4752296#4 -4752296#3 -4752296#2" >
        <stop busStop="-1404018064" duration="30.00" until="40.0"/> <!-- Maremagnum -->
        <stop busStop="-30317892" duration="30.00" until="101.0"/> <!-- Port Vell -->
    </route>
    <route id="pt_bus_N0:0" edges="4079520#1 245672931#0 245672931#2 246638753 8380803#2 309051278#2 462400263 185961564#3 185961564#5 185961564#6 880513897#2 880513897#3 880513897#5 827052044#2 525586872#2" >
        <stop busStop="21638918" duration="30.00" until="34.0"/> <!-- Pg. de Colom-Pl. Portal de la Pau -->
        <stop busStop="5603009325" duration="30.00" until="124.0"/> <!-- Les Drassanes -->
        <stop busStop="5603009324" duration="30.00" until="205.0"/> <!-- Paral·lel - Drassanes -->
        <stop busStop="5603009323" duration="30.00" until="358.0"/> <!-- Metro Paral·lel -->
        <stop busStop="8163708756" duration="30.00" until="446.0"/> <!-- Paral·lel - Ronda Sant Pau -->
    </route>
    <route id="pt_bus_N15:0" edges="8380809 239117583#0 239117583#1 239117583#2 239117583#3 239117583#4 239117583#5 239117583#6 239117583#7 239117583#8 239117583#9 239117583#10" >
        <stop busStop="6315729763" duration="30.00" until="70.0"/> <!-- Colom - La Rambla -->
        <stop busStop="5173125170" duration="30.00" until="211.0"/> <!-- La Rambla - Pl. del Teatre -->
        <stop busStop="8210106347" duration="30.00" until="242.0"/> <!-- La Rambla - Pl del Teatre -->
    </route>
    <route id="pt_bus_V15:1" edges="291731094#0 291731094#1 291731094#2 902517724#0 906391081 291731095#1 291731095#2 291731096#1 291731096#2 359735830#0 359735830#1 359735827#0 359735827#1 359735827#2 902517725#0 902517725#1 902517725#2 423227070#0 423227070#1 423227070#2 423227070#3 423227070#4 4079500#0 4079500#1" >
    </route>
    <route id="pt_bus_47:1" edges="291731094#0 291731094#1 291731094#2 902517724#0 906391081 4079509#1 4079509#3 4079509#4 4079509#5 4079509#6 4079509#7 4079509#8 4079509#9 4079509#10 4079509#11 4079509#12 4079509#13 4079509#14 4079509#15 4079509#16 4079509#17 4079509#18 4079509#19 4079509#21 4079509#22 4079509#23 4079509#24 4751867#0 4751867#1 4751867#2" >
    </route>
    <route id="pt_bus_D50:0" edges="906750214 237649293#0 237649293#1 237649293#3 246638755#0" >
        <stop busStop="8180094958" duration="30.00" until="31.0"/> <!-- Ronda Sant Pau - Folch i Torres -->
    </route>
    <route id="pt_bus_V13:1" edges="920602947#0 920602947#4 920602947#5 920602947#7 920602947#8 920602947#9 906395262#0 906395262#1 906395262#2 239117584#0 246638753 4079520#0 4079520#1 914891586#2 4079513#1 4079513#2 4079513#3" >
        <stop busStop="104459412" duration="30.00" until="105.0"/> <!-- La Rambla - Santa Mònica -->
        <stop busStop="5609791814" duration="30.00" until="241.0"/> <!-- Portal de la Pau -->
        <stop busStop="5609791813" duration="30.00" until="299.0"/> <!-- Moll de la Fusta -->
    </route>
    <route id="pt_bus_47:0" edges="-4751867#2 -4751867#1 -4751867#0 -4079509#24 -4079509#23 -4079509#22 -4079509#21 -4079509#19 -4079509#18 -4079509#17 -4079509#16 -4079509#15 -4079509#14 -4079509#13 -4079509#12 -4079509#11 -4079509#10 -4079509#9 -4079509#8 -4079509#7 -4079509#6 -4079509#5 -4079509#4 -4079509#3 -4079509#2 359739475#0 359739475#1 359739475#2 359739475#3 359739475#4" >
        <stop busStop="-5728520762" duration="30.00" until="71.0"/> <!-- Platja de la Barceloneta -->
        <stop busStop="-5728520761" duration="30.00" until="125.0"/> <!-- Pg Marítim - Pepe Rubianes -->
        <stop busStop="-5728520760" duration="30.00" until="189.0"/> <!-- Pepe Rubianes -->
        <stop busStop="2610196515" duration="30.00" until="286.0"/> <!-- Joan de Borbó Comte de Barcelona, 21 -->
    </route>
    <route id="pt_bus_59:1" edges="-4751867#2 -4751867#1 -4751867#0 -4079509#24 -4079509#23 -4079509#22 -4079509#21 -4079509#19 -4079509#18 -4079509#17 -4079509#16 -4079509#15 -4079509#14 -4079509#13 -4079509#12 -4079509#11 -4079509#10 -4079509#9 -4079509#8 -4079509#7 -4079509#6 -4079509#5 -4079509#4 -4079509#3 -4079509#2 359739475#0 359739475#1 359739475#2" >
        <stop busStop="-5728520762" duration="30.00" until="76.0"/> <!-- Platja de la Barceloneta -->
        <stop busStop="-5728520761" duration="30.00" until="129.0"/> <!-- Pg Marítim - Pepe Rubianes -->
        <stop busStop="-5728520760" duration="30.00" until="215.0"/> <!-- Pepe Rubianes -->
    </route>
    <route id="pt_bus_N6:1" edges="-4079513#3 -4079513#2 -4079513#1 -4079513#0 245672931#0 245672931#2 246638753 8380803#2 309051278#2 462400263 185961564#3 185961564#5 185961564#6 880513897#2 880513897#3 880513897#5 827052044#2 881656434#0 237649291#2 237649292#0 237649292#1 906750214 237649293#0 237649293#1 237649293#3 246638755#0" >
        <stop busStop="-5603009328" duration="30.00" until="44.0"/> <!-- Pg Colom - Via Laietana -->
    </route>
    <route id="pt_bus_V13:0" edges="-4079513#3 -4079513#2 -4079513#1 -4079513#0 8380809 239117583#0 239117583#1 239117583#2 239117583#3 239117583#4 239117583#5 239117583#6 239117583#7 239117583#8 239117583#9 239117583#10" >
        <stop busStop="-5603009328" duration="30.00" until="45.0"/> <!-- Pg Colom - Via Laietana -->
        <stop busStop="-5603009327" duration="30.00" until="98.0"/> <!-- Moll de la Fusta -->
        <stop busStop="-5643768378" duration="30.00" until="159.0"/> <!-- Portal de la Pau -->
        <stop busStop="5173125170" duration="30.00" until="270.0"/> <!-- La Rambla - Pl. del Teatre -->
        <stop busStop="8210106347" duration="30.00" until="301.0"/> <!-- La Rambla - Pl del Teatre -->
    </route>
    <route id="pt_bus_D50:1" edges="542284837#0 542284837#3 556049572#2 556049572#3 867009429 881656434#0 237649291#2 237649292#0 237649292#1 906750214" >
        <stop busStop="5609791819" duration="30.00" until="48.0"/> <!-- Paral·lel - Margarit -->
        <stop busStop="5609791818" duration="30.00" until="105.0"/> <!-- Paral·lel - Vila i Vilà -->
        <stop busStop="8180094958" duration="30.00" until="192.0"/> <!-- Ronda Sant Pau - Folch i Torres -->
    </route>
    <route id="pt_bus_V15:0" edges="-4079500#1 -4079500#0 -543357596 -423227070#3 -423227070#2 -423227070#1 -423227070#0 -902517725#2 -902517725#1 -902517725#0 423227071 997213890#0 997213890#1 545922500#0 545922500#1 359739476#0 359739476#1 359739476#3 359739476#5 359739475#0 359739475#1 359739475#2 359739475#3 359739475#4" >
        <stop busStop="-8143303494" duration="30.00" until="44.0"/> <!-- Pg Joan de Borbó - Moll de Catalunya -->
        <stop busStop="-1401485267" duration="30.00" until="144.0"/> <!-- Pg Joan de Borbó - Pl del Mar -->
        <stop busStop="8143303493" duration="30.00" until="237.0"/> <!-- Pg Joan de Borbó - Judici -->
        <stop busStop="8143303492" duration="30.00" until="311.0"/> <!-- Pg Joan de Borbó - Almirall Aixada -->
        <stop busStop="2610196515" duration="30.00" until="399.0"/> <!-- Joan de Borbó Comte de Barcelona, 21 -->
    </route>
    <route id="pt_bus_V11:1" edges="542284837#0 542284837#3 556049572#2 556049572#3 867009429 86772200#2 827052043#2 827052043#3 827052043#6 880513895#2 880513895#3 880513895#6 880513895#8 8380793 548337280 294871189 283764975 450445885#2 542623450#0 542623450#1 542623450#2 542623450#3 542623450#4 542623450#5 882153784" >
        <stop busStop="5609791819" duration="30.00" until="109.0"/> <!-- Paral·lel - Margarit -->
        <stop busStop="5609791818" duration="30.00" until="166.0"/> <!-- Paral·lel - Vila i Vilà -->
        <stop busStop="192328375" duration="30.00" until="247.0"/> <!-- Paral·lel - Cabanes -->
        <stop busStop="5609791816" duration="30.00" until="333.0"/> <!-- Paral·lel - Drassanes -->
        <stop busStop="8203768667" duration="30.00" until="471.0"/> <!-- Moll de Barcelona -->
    </route>
    <route id="pt_bus_V11:0" edges="882153784 32465719#1 32465719#2 32465719#3 32465719#4 32465719#5 32465719#6 32465719#7 32465719#8 450445884 283764988 283764975 245672930 498952132 294871187#0 294871187#1 462400263 185961564#3 185961564#5 185961564#6 880513897#2 880513897#3 880513897#5 827052044#2 881656434#0 237649291#2 237649292#0 237649292#1 906750214 237649293#0 237649293#1 237649293#3 246638755#0" >
        <stop busStop="8203768667" duration="30.00" until="38.0"/> <!-- Moll de Barcelona -->
        <stop busStop="5603009324" duration="30.00" until="151.0"/> <!-- Paral·lel - Drassanes -->
        <stop busStop="5603009323" duration="30.00" until="335.0"/> <!-- Metro Paral·lel -->
        <stop busStop="5603006494" duration="30.00" until="495.0"/> <!-- Pl. Josep Maria Folch -->
    </route>
    <route id="pt_bus_120:1" edges="4746868#0 4746868#1 235748487#0 235748487#1 235748487#2 235748487#4 235748487#5 126328435#0 126328435#1 126328435#2 246640824#7 553238924#0 8380809 241975841#0 241975841#1 -217108057#1 -217108057#0 217108056#0 239662764#1 239662764#2 239662764#3 239662764#4 -10851867#4 -10851867#3 -10851867#1 246630085#2 10851770#0 10851770#2 10851770#3 10851770#5 10851770#6 10851770#7 10851770#8 10428122#1" >
    </route>
    <route id="pt_bus_121:0" edges="48174566#0 553305787#1 553305787#4 553305787#7 553305786#0 140318962#1 140318962#2 314839720#1 314839720#2 76168863#1 76168863#4 76168863#6 76168863#7 76168863#9 76168863#10 136362730#0 136362730#1 136362730#2 136362730#3 136362730#4 136362730#5 136362730#6 136362730#7 136362730#8 136362730#9 553309964#0 553309964#1" >
        <stop busStop="8330812755" duration="30.00" until="54.0"/> <!-- Elkano - Blasco de Garay -->
        <stop busStop="8330812754" duration="30.00" until="110.0"/> <!-- Elkano - Poeta Cabanyes -->
        <stop busStop="8330812753" duration="30.00" until="180.0"/> <!-- CAP Les Hortes -->
        <stop busStop="8330812752" duration="30.00" until="263.0"/> <!-- Vila i Vilà - Lafont -->
        <stop busStop="8330812751" duration="30.00" until="313.0"/> <!-- Vila i Vilà - Mata -->
        <stop busStop="8330812750" duration="30.00" until="365.0"/> <!-- Vila i Vilà - Puigxuriguer -->
    </route>
    <route id="pt_bus_H14:1" edges="-4079513#3 -4079513#2 -4079513#1 -4079513#0 245672931#0 245672931#2 246638753 8380803#2 309051278#2 462400263 185961564#3 185961564#5 185961564#6 880513897#2 880513897#3 880513897#5 827052044#2 881656434#0" >
        <stop busStop="-5603009328" duration="30.00" until="44.0"/> <!-- Pg Colom - Via Laietana -->
        <stop busStop="-5603009327" duration="30.00" until="95.0"/> <!-- Moll de la Fusta -->
        <stop busStop="-5643768378" duration="30.00" until="157.0"/> <!-- Portal de la Pau -->
        <stop busStop="5603009325" duration="30.00" until="233.0"/> <!-- Les Drassanes -->
        <stop busStop="5603009324" duration="30.00" until="324.0"/> <!-- Paral·lel - Drassanes -->
        <stop busStop="5603009323" duration="30.00" until="473.0"/> <!-- Metro Paral·lel -->
        <stop busStop="8199235071" duration="30.00" until="627.0"/> <!-- Ronda Sant Pau - Carrer de les Flors -->
    </route>
    <route id="pt_bus_V19:1" edges="291731094#0 291731094#1 291731094#2 902517724#0 906391081 291731095#1 291731095#2 291731096#1 291731096#2 359735830#0 359735830#1 359735827#0 359735827#1 359735827#2 902517725#0 902517725#1 902517725#2 423227070#0 423227070#1 423227070#2 423227070#3 423227070#4 4079500#0 4079500#1" >
        <stop busStop="7802032345" duration="30.00" until="47.0"/> <!-- Pg Joan de Borbó -->
        <stop busStop="826085074" duration="30.00" until="144.0"/> <!-- Pg Joan de Borbó - Almirall Aixada -->
        <stop busStop="8143303449" duration="30.00" until="274.0"/> <!-- Pg Joan de Borbó - Pl del Mar -->
    </route>
    <route id="pt_bus_121:1" edges="553309964#1 896218296#1 553309965#0 553309963#0 553309963#1 4746227#0 4746227#1 4746227#2 4746227#3 4746227#4 4746227#5 553309960#0 553309960#1 314839726#0 314839726#1 314839726#2 76168863#1 76168863#4 76168863#6 76168863#7 76168863#9 76168863#10 261716933#0 261716933#1 827052044#2 881656434#0 237649291#2 237649292#0 237649292#1 906750214 237649293#0 237649293#1 237649293#3 246638755#0" >
        <stop busStop="8330812750" duration="30.00" until="41.0"/> <!-- Vila i Vilà - Puigxuriguer -->
        <stop busStop="8330812749" duration="30.00" until="112.0"/> <!-- Piquer - Cabanes -->
        <stop busStop="8330812748" duration="30.00" until="186.0"/> <!-- Pg de Montjuïc - Nou de la Rambla -->
        <stop busStop="8330812747" duration="30.00" until="265.0"/> <!-- Nou de la Rambla - Paral·lel -->
        <stop busStop="5603006494" duration="30.00" until="391.0"/> <!-- Pl. Josep Maria Folch -->
    </route>
    <route id="pt_bus_V19:0" edges="-4079500#1 -4079500#0 -543357596 -423227070#3 -423227070#2 -423227070#1 -423227070#0 -902517725#2 -902517725#1 -902517725#0 423227071 997213890#0 997213890#1 545922500#0 545922500#1 359739476#0 359739476#1 359739476#3 359739476#5 359739475#0 359739475#1 359739475#2 359739475#3 359739475#4" >
        <stop busStop="-8143303494" duration="30.00" until="44.0"/> <!-- Pg Joan de Borbó - Moll de Catalunya -->
        <stop busStop="-1401485267" duration="30.00" until="132.0"/> <!-- Pg Joan de Borbó - Pl del Mar -->
        <stop busStop="8143303493" duration="30.00" until="226.0"/> <!-- Pg Joan de Borbó - Judici -->
        <stop busStop="8143303492" duration="30.00" until="284.0"/> <!-- Pg Joan de Borbó - Almirall Aixada -->
        <stop busStop="2610196515" duration="30.00" until="355.0"/> <!-- Joan de Borbó Comte de Barcelona, 21 -->
    </route>
    <route id="pt_bus_21:0" edges="18506914 18507616#0 18507616#1 16367702#1 16367702#2 4746864#0 4746864#1 4746864#2 4746864#3 4746864#4 4746864#5 4746864#6 4746864#7 880513895#6 880513895#8 185961564#3 185961564#5 185961564#6 880513897#2 880513897#3 880513897#5 827052044#2 881656434#0" >
        <stop busStop="8234311065" duration="30.00" until="62.0"/> <!-- Pg de Josep Carner - Pg de Montjuïc -->
        <stop busStop="5603009324" duration="30.00" until="256.0"/> <!-- Paral·lel - Drassanes -->
        <stop busStop="5603009323" duration="30.00" until="442.0"/> <!-- Metro Paral·lel -->
        <stop busStop="7802014400" duration="30.00" until="600.0"/> <!-- Ronda Sant Pau - Paral·lel -->
    </route>
    <route id="pt_bus_Tourist_red:0" edges="246548945#0 246548945#1 246548945#2 126754105 557129738 550888669#0 550888669#1 294123479#0 44866136 180793106 309189481 960099379 474464194#0 474464194#1 -413441088#4 -413441088#3 -413441088#2 -413441088#1 -413441088#0 -553309962#0 -553309963#1 -553309963#0 -16367702#6 -16367702#5 -16367702#3 -16367702#2 -16367702#1 18507616#3 18507616#4 548337280 294871189 283764975 450445885#2 542623450#0 542623450#1 542623450#2 542623450#3 542623450#4 542623450#5 882153784 32465719#1 32465719#2 32465719#3 32465719#4 32465719#5 32465719#6 32465719#7 32465719#8 450445884 283764988 283764975 245672930 498952133#0 498952133#1 4079520#0 4079520#1 126715484#1 -126715484#1 -126715484#0 -427046677#0 -4752296#5 -4752296#4 -4752296#3 -4752296#2" >
        <stop busStop="1404685236" duration="30.00" until="364.0"/> <!-- Word Trade Center -->
        <stop busStop="5176810321" duration="30.00" until="544.0"/> <!-- Colon - Museu Maritim -->
        <stop busStop="1404002861" duration="30.00" until="888.0"/> <!-- Port Vell -->
    </route>
    <route id="pt_bus_59:0" edges="920602947#0 920602947#4 920602947#5 920602947#7 920602947#8 920602947#9 906395262#0 906395262#1 906395262#2 239117584#0 246638753 4079520#0 4079520#1 914891586#2" >
        <stop busStop="104459412" duration="30.00" until="92.0"/> <!-- La Rambla - Santa Mònica -->
        <stop busStop="5609791814" duration="30.00" until="565.0"/> <!-- Portal de la Pau -->
    </route>
    <route id="pt_bus_N6:0" edges="542284837#0 542284837#3 556049572#2 556049572#3 867009429 86772200#2 827052043#2 827052043#3 827052043#6 880513895#2 880513895#3 880513895#6 880513895#8 8380793 548337280 294871189 283764975 245672930 498952133#0 498952133#1 4079520#0 4079520#1 914891586#2 4079513#1 4079513#2 4079513#3" >
    </route>
    <route id="pt_bus_21:1" edges="881656434#0 237649291#2 237649292#0 237649292#1 906750214 4745952#3 4745952#5 542284838#0 542284838#1 542284838#2 542284838#3 556049572#2 556049572#3 867009429 86772200#2 827052043#2 827052043#3 827052043#6 880513895#2 880513895#3 880513895#6 880513895#8 8380793 18506598#0 18506598#1 18506598#2 18506598#3 79304108#1 79304108#2 4746860" >
        <stop busStop="7802014400" duration="30.00" until="38.0"/> <!-- Ronda Sant Pau - Paral·lel -->
        <stop busStop="5609791818" duration="30.00" until="294.0"/> <!-- Paral·lel - Vila i Vilà -->
        <stop busStop="192328375" duration="30.00" until="390.0"/> <!-- Paral·lel - Cabanes -->
        <stop busStop="5609791816" duration="30.00" until="534.0"/> <!-- Paral·lel - Drassanes -->
        <stop busStop="8234311093" duration="30.00" until="655.0"/> <!-- Pg de Josep Carner - Jardins de Walter Benjamin -->
    </route>
    <route id="pt_bus_88:1" edges="49542094#2 297207987#1 49542095#0 49542095#1 49542095#2 49542095#4 283764989#0 283764989#1 283764988 283764975 245672930 498952132 294871187#0 294871187#1 462400263 185961564#3 185961564#5 185961564#6 880513897#2 880513897#3 880513897#5 827052044#2 525586872#2 556049572#2 556049572#3" >
        <stop busStop="5368499197" duration="30.00" until="89.0"/> <!-- Moll Sant Bertran - Moll Barcelona -->
        <stop busStop="5026646853" duration="30.00" until="188.0"/> <!-- Paral·lel - Drassanes -->
        <stop busStop="192327539" duration="30.00" until="416.0"/> <!-- Metro Paral·lel -->
        <stop busStop="5024685799@7944787" duration="30.00" until="626.0"/> <!-- Paral·lel - Vila i Vilà -->
    </route>
    <route id="pt_bus_120:0" edges="-10428122#1 10851731#1 10851731#2 10851731#3 10851731#4 10851731#5 10851731#6 10851731#7 10851731#8 10851731#9 10851731#10 553234917#0 10851867#1 10851867#3 10851867#4 11297310#1 11297310#2 11297310#3 11297310#4 295215796#1 217108057#0 217108057#1 239117584#0 246638753 4079520#0 4079520#1 914891586#2 4079513#1 4079513#2 4079513#3" >
        <stop busStop="8328305436" duration="30.00" until="54.0"/> <!-- Rambla del Raval - Aurora -->
        <stop busStop="8328305435" duration="30.00" until="118.0"/> <!-- Rambla del Raval - Sant Pau -->
        <stop busStop="8328305434" duration="30.00" until="190.0"/> <!-- Av Drassanes - Arc del Teatre -->
        <stop busStop="8328305433" duration="30.00" until="313.0"/> <!-- Av Drassanes - Pl Portal de la Pau -->
        <stop busStop="5609791814" duration="30.00" until="645.0"/> <!-- Portal de la Pau -->
        <stop busStop="5609791813" duration="30.00" until="705.0"/> <!-- Moll de la Fusta -->
    </route>
    <route id="pt_bus_88:0" edges="867009429 86772200#2 827052043#2 827052043#3 827052043#6 880513895#2 880513895#3 880513895#6 880513895#8 8380793 548337280 18508391#0 18508391#1 40653591#0 40653591#1 40653591#3 49542094#0 49542094#1 49542094#2" >
        <stop busStop="5024685799" duration="30.00" until="47.0"/> <!-- Paral·lel - Vila i Vilà -->
        <stop busStop="5024694587" duration="30.00" until="347.0"/> <!-- Paral·lel - Drassanes -->
        <stop busStop="5368382512" duration="30.00" until="636.0"/> <!-- Moll Sant Bertran - Moll Barcelona -->
    </route>
    <route id="pt_bus_H14:0" edges="881656434#0 237649291#2 237649292#0 237649292#1 906750214 4745952#3 4745952#5 542284838#0 542284838#1 542284838#2 542284838#3 556049572#2 556049572#3 867009429 86772200#2 827052043#2 827052043#3 827052043#6 880513895#2 880513895#3 880513895#6 880513895#8 8380793 548337280 294871189 283764975 245672930 498952133#0 498952133#1 4079520#0 4079520#1 914891586#2 4079513#1 4079513#2 4079513#3" >
        <stop busStop="8199235071" duration="30.00" until="37.0"/> <!-- Ronda Sant Pau - Carrer de les Flors -->
        <stop busStop="5609791818" duration="30.00" until="303.0"/> <!-- Paral·lel - Vila i Vilà -->
        <stop busStop="192328375" duration="30.00" until="458.0"/> <!-- Paral·lel - Cabanes -->
        <stop busStop="5609791816" duration="30.00" until="596.0"/> <!-- Paral·lel - Drassanes -->
        <stop busStop="5609791815" duration="30.00" until="759.0"/> <!-- Les Drassanes -->
        <stop busStop="5609791814" duration="30.00" until="920.0"/> <!-- Portal de la Pau -->
        <stop busStop="5609791813" duration="30.00" until="981.0"/> <!-- Moll de la Fusta -->
    </route>
    <route id="pt_subway_L3:0" edges="38912601#0 38912601#1 38912601#3 38912601#4" >
        <stop busStop="3699659475" duration="30.00" until="31.0"/> <!-- Trinitat Nova -->
        <stop busStop="462259779" duration="30.00" until="110.0"/> <!-- Roquetes -->
        <stop busStop="1238021418" duration="30.00" until="195.0"/> <!-- Canyelles -->
        <stop busStop="462274207" duration="30.00" until="276.0"/> <!-- Valldaura -->
        <stop busStop="462274208" duration="30.00" until="353.0"/> <!-- Mundet -->
        <stop busStop="462274209" duration="30.00" until="428.0"/> <!-- Montbau -->
        <stop busStop="108253724" duration="30.00" until="496.0"/> <!-- Vall d'Hebron -->
        <stop busStop="108253730" duration="30.00" until="574.0"/> <!-- Penitents -->
        <stop busStop="462274210" duration="30.00" until="648.0"/> <!-- Vallcarca -->
        <stop busStop="462274211" duration="30.00" until="724.0"/> <!-- Lesseps -->
        <stop busStop="108253748" duration="30.00" until="792.0"/> <!-- Fontana -->
        <stop busStop="462274212" duration="30.00" until="874.0"/> <!-- Diagonal -->
        <stop busStop="1417669619" duration="30.00" until="944.0"/> <!-- Passeig de Gràcia -->
        <stop busStop="108229618" duration="30.00" until="1012.0"/> <!-- Catalunya -->
        <stop busStop="462274213" duration="30.00" until="1043.0"/> <!-- Liceu -->
        <stop busStop="108229629" duration="30.00" until="1074.0"/> <!-- Drassanes -->
        <stop busStop="1043786437" duration="30.00" until="1171.0"/> <!-- Paral·lel -->
        <stop busStop="2526271760" duration="30.00" until="1269.0"/> <!-- Poble Sec -->
        <stop busStop="5310050887" duration="30.00" until="1341.0"/> <!-- Espanya (L3) -->
    </route>
    <route id="pt_subway_L3:1" edges="332758526#5 -332758526#5 -332758526#4 -332758526#3 -332758526#2 -332758526#0 332758526#0 332758526#1 332758526#3 332758526#4 332758526#5 -332758526#5 -332758526#4 -332758526#3 -332758526#2 -332758526#0 332758526#0 332758526#1 332758526#3 332758526#4 332758526#5 -332758526#5 -332758526#4 -332758526#3 -332758526#2 -332758526#0 332758526#0 332758526#1 332758526#3 332758526#4 332758526#5 -332758526#5 -332758526#4 -332758526#3 -332758526#2 -332758526#0 332758526#0" >
        <stop busStop="5310050767" duration="30.00" until="94.0"/> <!-- Espanya (L3) -->
        <stop busStop="-3398928336" duration="30.00" until="170.0"/> <!-- Poble Sec -->
        <stop busStop="-3398928329" duration="30.00" until="244.0"/> <!-- Paral·lel -->
        <stop busStop="-3398928297" duration="30.00" until="316.0"/> <!-- Drassanes -->
        <stop busStop="-3398928319" duration="30.00" until="385.0"/> <!-- Liceu -->
        <stop busStop="-3398923289" duration="30.00" until="457.0"/> <!-- Catalunya -->
        <stop busStop="-3398928330" duration="30.00" until="529.0"/> <!-- Passeig de Gràcia -->
        <stop busStop="-3398928295" duration="30.00" until="599.0"/> <!-- Diagonal -->
        <stop busStop="3398928307" duration="30.00" until="1150.0"/> <!-- Fontana -->
        <stop busStop="-3398928318" duration="30.00" until="1551.0"/> <!-- Lesseps -->
        <stop busStop="-3398928359" duration="30.00" until="1627.0"/> <!-- Vallcarca -->
        <stop busStop="-3398928331" duration="30.00" until="1700.0"/> <!-- Penitents -->
        <stop busStop="7778850858" duration="30.00" until="2039.0"/> <!-- Vall d'Hebron -->
        <stop busStop="-3398928324" duration="30.00" until="2648.0"/> <!-- Montbau -->