<?xml version="1.0" encoding="UTF-8"?>

<!-- generated on 2021-10-31 18:01:03 by Eclipse SUMO duarouter Version 1.10.0
<configuration xmlns:xsi="http://www.w3.org/2001/XMLSchema-instance" xsi:noNamespaceSchemaLocation="http://sumo.dlr.de/xsd/duarouterConfiguration.xsd">

    <input>
        <net-file value="C:\Users\juane\Sumo\2021-10-31-18-00-15\osm.net.xml"/>
        <route-files value="C:\Users\juane\Sumo\2021-10-31-18-00-15\osm.pedestrian.trips.xml"/>
    </input>

    <output>
        <output-file value="C:\Users\juane\Sumo\2021-10-31-18-00-15\osm.pedestrian.rou.xml"/>
        <alternatives-output value="C:\Users\juane\Sumo\2021-10-31-18-00-15\osm.pedestrian.rou.alt.xml"/>
    </output>

    <time>
        <begin value="0"/>
        <end value="3600"/>
    </time>

    <report>
        <no-warnings value="true"/>
        <ignore-errors value="true"/>
        <no-step-log value="true"/>
    </report>

</configuration>
-->

<routes xmlns:xsi="http://www.w3.org/2001/XMLSchema-instance" xsi:noNamespaceSchemaLocation="http://sumo.dlr.de/xsd/routes_file.xsd">
    <vType id="ped_pedestrian" vClass="pedestrian"/>
    <person id="ped0" type="ped_pedestrian" depart="0.00">
        <walk edges="814532777#0 120461146#3 120461146#2 120461146#0 626351976 625511619#1 45702374#0 45702374#2 147883575#0 147883575#1 824109160#7 824109160#8 824109161#1 628540523#1 628540523#0 29500637#2 29500637#1 29500670#23 29500670#22 29500670#21 29500670#20 29500670#19 29500670#14 29500670#13 29500670#12 29500670#11 29500670#10 29500670#9 29500670#7 29500670#6 29500670#5 29500670#4 29500670#3 29500670#2 29500670#1 29500477#0 29500477#1 29500477#2 29500477#4 29500477#5 29500477#6 29500477#7 -145556699#0"/>
    </person>
    <person id="ped1" type="ped_pedestrian" depart="1.17">
        <walk edges="29200699#0 29200699#1 120196989#7 806326933#1 806326932#2 120196979#0 520319274#1 29200688#15 -29200688#14 -29200688#7 -29200688#5 -29200688#4 -29200688#3 666985011 809088682 807282772#2 807282776#1 666985005 666985016 545119341 43835914#0 43835914#3 43835914#4 43835914#5 807516829#0 807516829#1 807516829#2 807516829#3 807516829#4 807516829#5 807516829#6 807516829#7 225113284#0 225113284#1 225113284#2 225113284#3 644731733 155252324#2 155252323 170867186#0"/>
    </person>
    <person id="ped2" type="ped_pedestrian" depart="2.34">
        <walk edges="822485154#2 822485207#0 29500645#10 819823170#11 29500645#8 29500586#2 29500586#0 147887010#0 -537273263#3 -537273263#1 -10152476#4 -10152476#3 -10152476#2 -10152476#1 -764142047#3 -764142047#1 -764142048#3 545119341 673659285 673659286 -179043329#8 -179043329#6 -179043329#5 -179043329#4 -179043329#3 -179043329#2 -179043329#1 -179043329#0 -28211753#1 -28211753#2 -28211753#3 43787315#2 43787315#1 27458387#2 27458387#1 27458387#0 43786869#2 43786869#0 27458386 666985032 520811804#3 815653297#1"/>
    </person>
    <person id="ped3" type="ped_pedestrian" depart="3.51">
        <walk edges="832176544#1 -29993748#7 -29993748#11 -29993748#14 -29993748#15 29993748#16 29993748#17 29993748#18 29993748#19 211680454#8 814928759#2 814928758#1 814928757 809910892#1 120717746#1 120717746#2 809910894#1 120717735#0 764137061#9 809910880#0 809910878#1 120718412#13 120718412#12 636667683#2 636667683#1 -809532219#0"/>
    </person>
    <person id="ped4" type="ped_pedestrian" depart="4.68">
        <walk edges="796442262#8 104739942#1 104739904 104739887 104739888#1 104739929 145557988#1 104739939#4 104739939#5 97810626#6 796442328#1 796442329#1 29500477#0 819188373#5 819188373#4 819188373#2 819188373#0 28945206#0 28945206#1 210256932#0 28100372#0 28100372#2 28100372#3 771096339#1 537273267 27923302 806646622#0 806646622#1 806646622#2 806646622#3 27923306#0 27923306#1 27923306#2 27923306#3 666985005 666985016 545119341 673659285 673659286 -179043329#8 -179043329#6 -179043329#5 -179043329#4 -179043329#3 -179043329#2 -179043329#1 -179043329#0 -28211753#1 -28211753#2 -28211753#3 -28211753#6 43786869#7 810417132#1 810417201#5 810417201#3 810417201#2 810417201#1 810417200#1 571082198 338889343#1 338889343#2 338889343#3 338889343#4 338889343#5 815653254 815653252#1 571082202#1 571082202#0 814928862#0 814928862#1 814928864#1 814928822#1 814928824#0 814928824#1 -814928846#2 -814928846#3 -146605194#4"/>
    </person>
    <person id="ped5" type="ped_pedestrian" depart="5.84">
        <walk edges="163927003#0 163927003#1 831702936#0 831702923#11 831702923#10 831702923#9 831702923#8 831702923#7 831702923#6 831702923#5 831702924#0 182324532#1 831206420#0 831206416#3 128913059#9 128913059#8 128913059#7 831206453#1 831206429#6 128913059#3 128913059#1 832204662#1 52936664#2 52936664#4 52936664#6 52936664#9 146605191#2 108144712#1 108144712#2 108144712#4 108144712#7 832176509#1 832176509#2 832176504#20 832176503 -832176502#0 29993782#7 29993782#4 29993782#3 29993782#2 29993782#1 832176504#2 832176487#1 211680454#2 814928778#3 814928778#1 814928777#1 43787289#14 814928755#1 764142046#6 809532184#2 809532184#3 809532184#4 809532188#1 809532185#1 809532190#1 814532824#2 814532824#1 628210293#1 120461146#0 626351976 625511619#1 625511619#0 642927423 225113275#3 225113275#1 225113275#0 682952171#2 682952171#0 682952172#2 210256924#8 808289835#1"/>
    </person>
    <person id="ped6" type="ped_pedestrian" depart="7.01">
        <walk edges="-146459515#1 146459514#1 833778114#6 833778134 -10370002#4 45729999#0 45729999#1 45729999#2 833778152#3 833778152#4 833778152#5 833778165#0 815653310#3 815653310#4 815653310#5 815653310#6 815653310#8 815653310#9 815653312 760165171 156217868#0"/>
    </person>
    <person id="ped7" type="ped_pedestrian" depart="8.18">
        <walk edges="814928789#8 814928789#9 814928770#1 814928769#3 814928769#1 814928768#1 814928767 814928747#4 120718398#1 814928747#8 584944639 764137061#6 764137061#7 764137061#8 764137061#9 151640817#2 151640817#3 151640817#4 151640817#5 809910841#0 809910845#1 809910842 790338976#13 146610455#0 790338977 567910716 567910724#0 567910721#0 567910717 790338976#4 790338985#1 -179043329#5 -120708843#0 -120708843#1 -120708843#2 -120708843#3 -120708843#4 -120708843#5 -120708843#6 -120708843#7 -120708843#8 179043324#1 179043324#0 -29200688#5 -29200688#7 -29200688#14 806326974#0 806326889#5 806326875 537092517#1 537092517#0 120704324 145528117 537092519 808739120#1 808739140#0 156314853#2 29501281#0 29501281#2 145515494#0 145515494#1 642919993#0 -145515500 179037235#1 179037235#0 642919994#0 642919994#1 808739055#0"/>
    </person>
    <person id="ped8" type="ped_pedestrian" depart="9.35">
        <walk edges="16735952#0 10072155#2 833489446#1 764142040#2 158061225 179256132#0 179256132#4 179256132#5 179256132#6 158065203 158065213 670556850 128913063#0 128913063#1 128913063#2 678839699#0 678839699#2 642650639 642650638 4993753 9835036#0 9835036#3 9835036#4 571082200#1 815653255#4 815653255#3 815653255#2 815653255#1 815653254 338889343#5 338889343#4 338889343#3 338889343#2 338889343#1 571082198 810417200#1 810417201#1 810417201#2 810417201#3 810417201#5 810417132#1 43786869#10 -9776691#8 -9776691#7 810417113#1 809910851#5 809910862#2 809910862#1 809910860#1 43787291#2 43787291#1 43787291#0 151640817#3 809910868#1 809910867 809532220#2"/>
    </person>
    <person id="ped9" type="ped_pedestrian" depart="10.52">
        <walk edges="830681022#0 830680994#1 830680994#2 832204667#1 210585688#3 -52936664#3 -52936664#4 -52936664#6 -52936664#9 146605191#2 108144712#1 108144712#2 108144712#4 108144712#7 832176509#1 832176509#2 832176504#20 832176503 -832176502#0 29993782#7 29999162#1 29999162#0 -29993748#17 -29993748#18 29993748#19 211680454#8 814928759#2 814928758#1 814928757 809910892#1 120717746#1 120717746#2 809910894#1 120717735#0 764137061#9 151640817#2 151640817#3 151640817#4 809910836#1 120718412#10 -120514961#0"/>
    </person>
    <person id="ped10" type="ped_pedestrian" depart="11.69">
        <walk edges="830680997#2 830680997#1 830681020#0 830680994#2 210585687#6 128913059#1 128913059#3 831206429#6 831206453#1 128913059#7 128913059#8 128913059#9 831206417#4 831206420#1 -182324532#1 24450624#6 24450624#5 24450624#4 24450624#2 24450624#1 818042770#2 818042770#0 9041049#5 818042771#0"/>
    </person>
    <person id="ped11" type="ped_pedestrian" depart="12.86">
        <walk edges="567910719 567910721#2 567910724#0 567910724#1 567910724#2 567910723#0 567910723#1 146610455#2 790338976#11 809910847#0 -28087950#11 9776691#0 9776691#1 9776691#3 9776691#4 9776691#5 9776691#6 9776691#7 9776691#8 666985051 809910891#2 809910891#3 120717746#0"/>
    </person>
    <person id="ped12" type="ped_pedestrian" depart="14.03">
        <walk edges="833778152#3 45729999#2 45729999#1 45729999#0 -10370002#4 -10370002#5 -10370002#6 833778137 833778114#4 833778114#3 833778114#2 812418661 812418660#1 812418659#2 812418658#1 812418662#2 812418688#1 -123894777#3 -123894777#4 -123894777#5 -520811806#0 -520811806#1 -520811806#2 666985019 708595279 807159531 -179043317#0 -179043317#1 -179043317#2 -179043317#7 179043317#10 179043317#11 179043317#12 179043317#13 179043317#14 666985008 666985011 29501142#2 809088684#0 807282772#4 807282774#1 9777922#0 626351975 151642145#1 9777927#7 9777927#6 9777927#5 9777927#4 9777927#1 9777927#0 806646623#1 806646623#0 145530855#2 97810659#8 808400803#1 43786235#1 43786235#2 43786235#3 43786235#4 -808400732#4 -808400732#3 808400732#2 808400726 560086261#1 560086261#2"/>
    </person>
    <person id="ped13" type="ped_pedestrian" depart="15.20">
        <walk edges="-814928844 -814928842#3 -814928842#4 -814928842#1 814928847#5 814928847#4 814928847#3 814928838#1 -29999176#1 -29999176#2 -29999176#3 -29999176#4 -29999176#5 8617529#2 814928858#0 571082203 571082205 815653251#1 338889343#4 338889343#3 338889343#2 338889343#1 571082198 810417200#1 810417201#1 810417201#2 810417201#3 810417201#5 810417132#1 43786869#7 -28211753#6 -28211753#3 -28211753#2 -28211753#1 -179043329#0 -179043329#1 -179043329#2 -179043329#3 -179043329#4 -179043329#5 -179043329#6 -179043329#8 673659286 673659285 545119341 666985016 666985005 27923306#3 27923306#2 27923306#1 27923306#0 806646622#3 806646622#2 806646622#1 806646622#0 27923302 537273267 771096339#1 28100372#3 28100372#2 28100372#0 210256932#0 28945206#1 28945206#0 -819188373#1 -819188373#3 -819188373#4"/>
    </person>
    <person id="ped14" type="ped_pedestrian" depart="16.37">
        <walk edges="831206486#1 831206485#1 831206485#0 831206431#6 831206494#1 832176590#0 832176550#4 832176550#3 832176550#2 832176549#1 29993748#2 814928856#0 814928811#0 814928855#0 -814928800#1 8617529#6 8617529#5 8617529#4 8617529#3 8617529#2 8617529#1 8617529#0 666985046 211680454#14 809910903#13 809910901#1 809910900#2 809910899#1"/>
    </person>
    <person id="ped15" type="ped_pedestrian" depart="17.53">
        <walk edges="830681013#0 43995274#4 210585701#0 210585701#1 210585698 29993727#0 29993727#2 832204636#17 29993727#4 29993727#7 29993727#10 52937223#1 832176578#2 52937223#3 52937223#5 832176510#0 628549283#4 -832176509#1 832176509#2 832176504#20 832176503 -832176502#0 29993782#7 29993782#4 29993782#3 29993782#2 29993782#1 832176504#2 832176487#1 211680454#2 814928778#3 814928778#1 814928777#1 43787289#14 814928755#1 764142046#6 809532184#2 809532184#3 809532184#4 809532188#1 809532185#1 809532190#1 814532824#2 814532824#1 628210293#1 120461146#0 626351976 625511619#1 45702374#0 45702374#2 147883575#0 147883575#1 824109160#7 824109160#8 824109161#1 628540523#1 628540523#0 29500637#2 29500637#1 29500670#23 29500670#22 29500670#21 29500670#20 29500670#19 29500670#14 29500670#13 29500670#12 29500670#11 29500670#10 29500670#9 29500670#7 29500670#6 29500670#5 28945213#6 28945213#5 28945213#4 819823199#1"/>
    </person>
    <person id="ped16" type="ped_pedestrian" depart="18.70">
        <walk edges="666984997#2 666984997#1 666984997#0 807282763 807282768#0 151642143#0 642650650 29501300 109043727#0 109043727#1 109043727#2 109043727#3 109043727#5 109043727#6 120579104#1 120579104#2 120579104#3 156314853#0 808739140#0 808739120#1 808739120#0"/>
    </person>
    <person id="ped17" type="ped_pedestrian" depart="19.87">
        <walk edges="831206431#14 831206453#0 831206431#13 831206431#12 831206431#11 831206431#10 831206431#9 831206431#8 831206431#7 831206494#1 179043320#2 179043320#1 179043320#0 642650636 642650637 4993753 815653279#2 815653279#0 764142039#4 764142039#3 764142039#1 815653272#1 815653273#1 815653273#2 815653273#3 810417197#1 120196992#2 810417204#2 810417203#1 45562887#0 810417169#1"/>
    </person>
    <person id="ped18" type="ped_pedestrian" depart="21.04">
        <walk edges="831702930#2 831702930#1 831702951#1 124386064#3 124386064#4 9835085#5 9835085#6 146496319#0 146496319#1 146496319#4 815653309#9 815653309#10 146496319#9 210585687#11 912744073#0 912744073#1 624139478 642650636 8617529#11 571082199#1 896430795#2 815653259#1 571082200#1 815653255#4 815653255#3 815653255#2 815653255#1 815653254 338889343#5 338889343#4 338889343#3 338889343#2 338889343#1 571082198 810417200#1 810417201#1 810417201#2 810417201#3 810417201#5 810417132#1 43786869#7 -28211753#6 -28211753#3 -28211753#2 -28211753#1 179043329#0 179043329#1 179043329#2 179043329#3 179043329#4 179043329#5 179043329#6 179043329#7 161371862 666985008 666985011 29501142#2 29501142#3 29501142#4 642650652 161371871 29501523 151642144 109043727#0 109043727#1 109043727#2 -109043727#3 43684444#2 43684444#1 43684444#0 -43684445#0 -43684445#1 809088789#3"/>
    </person>
    <person id="ped19" type="ped_pedestrian" depart="22.21">
        <walk edges="818042821#0 158061265#1 158061265#0 565151064 163927002 670556843 163927012#2 831702934#1 831702933 831702932#0 831702941 831702923#9 831702923#8 831702923#7 831702943#1 24450624#5 24450624#6 -182324532#1 24450643#1 24450643#3 -643068342#2 -643068342#1 -643068342#0 831206473#3 831206473#2 831206473#1 831206471#1 179043320#2 -29993748#0 29993748#1 29993748#2 -52938344#1 -179043332#0"/>
    </person>
    <person id="ped20" type="ped_pedestrian" depart="23.38">
        <walk edges="178756099#3 178756099#2 45729994#1 45729994#0 833778166#0 178756092#1 815653310#4 815653375 815653344#0 815653327#1 815653327#0 146459518 815653359 -10370006#5 815653285#3 815653285#2 815653282#1 815653284#1 815653279#2 4993753 9835036#0 814928865#1 814928867#1 814928808#5 814928836#0 814928836#1 -814928804#0 -179043332#2 -179043332#1 814928817#3 814928817#2 814928857#1 832176548#1 832176547#4 52924834 832176547#9 832176559#0 29993753#0 146605191#2 146605191#1 146605191#0 146605190#1 29993730#1 29993730#2"/>
    </person>
    <person id="ped21" type="ped_pedestrian" depart="24.55">
        <walk edges="-67165144#4 67165144#2 120718412#13 120718412#12 120718412#11 120718412#10 120718412#9 120718412#8 120718412#7 809532204#1 809532207#1 790338976#15 170867185#3 567910716 567910724#0 567910721#0 567910717 790338976#4 790338985#1 -179043329#5 -120708843#0 -120708843#1 -120708843#2 179043317#13"/>
    </person>
    <person id="ped22" type="ped_pedestrian" depart="25.72">
        <walk edges="-830680991#1 108144704#3 108144704#2 43995274#3 43995274#4 210585701#0 210585701#1 210585698 29993727#0 29993727#2 832204636#17 29993727#4 29993727#7 29993727#10 52937223#1 832176578#2 52937223#3 52937223#5 832176510#0 628549283#4 -832176509#1 832176509#2 832176504#20 832176503 -832176502#0 29993782#7 29993782#4 29993782#3 29993782#2 29993782#1 832176504#2 832176487#1 211680454#2 814928778#3 814928778#1 814928777#1 43787289#14 814928755#1 764142046#6 809532184#2 809532184#3 809532184#4 809532188#1 809532185#1 809532190#1 814532824#2 814532824#1 628210293#1 120461146#0 626351976 625511619#1 45702374#0 45702374#2 147883575#0 147883575#1 824109160#7 824109160#8 824109161#1 628540523#1 628540523#0 29500637#2 29500637#1 29500670#23 29500670#22 29500670#21 29500670#20 29500670#19 29500586#11 29500586#12 29500586#13"/>
    </person>
    <person id="ped23" type="ped_pedestrian" depart="26.89">
        <walk edges="813885931#2 146496313#1 826453845#0 826453841#2 826453840 826453847#3 826453850#1 29200769#2 -29200769#1 -29200769#0 760165168 43943994#0 43943994#1 760165167 43341790#0 43341790#1 43341790#2 636799436#0 636799436#2 158061247 158062881 158062879 -467786349#3 829218169#0 660237818#8 828792811#1 828792811#0 660237815#2 636799441#2"/>
    </person>
    <person id="ped24" type="ped_pedestrian" depart="28.05">
        <walk edges="642927417#1 642927417#2 642927417#3 642927417#4 97810626#1 796442339 796442336#1 29500477#4 29500477#2 29500477#1 29500477#0 819188373#5 819188373#4 819188373#2 819188373#0 28945206#0 28945206#1 210256932#0 28100372#0 28100372#2 28100372#3 771096339#1 537273267 27923302 806646622#0 806646622#1 806646622#2 806646622#3 27923306#0 807516756#1 11529961#2 11529961#1 807282776#1 807282772#2 809088682 666985011 666985008 179043317#14 179043317#13 179043317#12 179043317#11 179043317#10 -179043317#7 -179043317#2 -179043317#1 -179043317#0 807159531 29047989#0 156522809#3 810417159#0 810417159#1 335249818#0 156522808#1"/>
    </person>
    <person id="ped25" type="ped_pedestrian" depart="29.22">
        <walk edges="28100382#1 807516845#1 807516847#1 807516762#10 807516754#1 27923306#1 27923306#2 27923306#3 666985005 666985016 545119341 673659285 673659286 -179043329#8 -179043329#6 -179043329#5 -179043329#4 -179043329#3 -179043329#2 -179043329#1 -179043329#0 -28211753#1 -28211753#2 -28211753#3 -28211753#6 43786869#7 810417132#1 810417201#5 810417201#3 810417201#2 810417201#1 810417200#1 571082198 338889343#1 338889343#2 338889343#3 338889343#4 338889343#5 815653254 815653255#1 815653255#2 815653255#3 815653255#4 571082200#1 9835036#4 9835036#3 9835036#0 4993753 642650638 642650639 678839699#2 678839699#0 128913063#2 128913063#1 128913063#0 670556850 156217868#6 768104885#1 768104886#1 768104886#2 45568041#1 179256129#0 833489460 833489463#2 833489463#1 833489463#0"/>
    </person>
    <person id="ped26" type="ped_pedestrian" depart="30.39">
        <walk edges="814928784#1 -130392007#4 809910893#1 809910892#1 809910891#3 809910891#2 666985051 9776691#8 -9776691#7 -9776691#6 -43787315#5 810417115#1"/>
    </person>
    <person id="ped27" type="ped_pedestrian" depart="31.56">
        <walk edges="130392007#4 -203928453#7 -203928453#8 764137061#6 814928751#1 764142046#4 814532809#0 809532184#3 809532184#4 809532188#1 809532185#1 809532190#1 814532824#2 814532824#1 628210293#1 120461146#0 626351976 625511619#1 45702374#0 45702374#2 147883575#0 147883575#1 824109160#7 824109160#8 824109161#1 628540523#1 628540523#0 29500637#2 29500637#1 29500670#23 29500670#22 29500670#21 29500670#20 29500670#19 29500670#14 29500670#13 29500670#12 29500670#11 29500670#10 29500670#9 29500670#7 29500670#6 29500670#5 28945213#6 819823195"/>
    </person>
    <person id="ped28" type="ped_pedestrian" depart="32.73">
        <walk edges="124340720#4 -124340720#5 -29993730#1 146605190#0 832176583#0 108144710#1 52937223#9 52937223#12 832176535#0 832176532#3 832176538#1 29999176#0 -29999176#1 -29999176#2 -29999176#3 -29999176#4 -29999176#5 8617529#2 814928858#0 571082203 571082205 815653251#1 338889343#4 338889343#3 338889343#2 338889343#1 338889343#0 810417196#0 810417199 9835059#7 666985027 45562887#0 45562887#1 45562887#3 45562887#5 45562887#6 666985019"/>
    </person>
    <person id="ped29" type="ped_pedestrian" depart="33.90">
        <walk edges="97810656#2 97810656#1 97810656#0 29500477#7 29500477#6 29500477#5 29500477#4 29500477#2 29500477#1 29500477#0 29500670#1 29500670#2 29500670#3 29500670#4 29500670#5 29500670#6 29500670#7 29500670#9 29500670#10 29500670#11 29500670#12 29500670#13 29500670#14 29500670#19 29500670#20 29500670#21 29500670#22 29500670#23 29500637#1 29500637#2 628540523#0 628540523#1 824109161#1 824109160#8 824109160#7 147883575#1 147883575#0 45702374#2 45702374#0 625511619#1 626351976 120461146#0 628210293#1 814532778#3"/>
    </person>
    <person id="ped30" type="ped_pedestrian" depart="35.07">
        <walk edges="809088692#1 809088688#1 -109043727#1 109043727#0 151642144 29501523 161371871 642650652 29501142#4 29501142#3 29501142#2 666985011 666985008 179043317#14 179043317#13 179043317#12 179043317#11 179043317#10 -179043317#7 -179043317#2 -179043317#1 -179043317#0 807159531 29047989#0 156522809#3 156522809#2 156522809#1 156522809#0 810417188#0 45562887#5 120715320#1 120715320#2 120715304#4 120715304#2 120715304#1 812418671#0 812418670#1 26542488#29 26542488#1 120196988#3 815653310#0 815653310#1 815653310#2 815653310#3 815653310#4 815653310#5 815653310#6 146459516#0 815653336#1 815653333#3"/>
    </person>
    <person id="ped31" type="ped_pedestrian" depart="36.24">
        <walk edges="831206470#9 831206470#10 24450643#3 24450643#1 831206421#0 831206409#4 831206409#5 831704242#1 591288446#10 591288446#9 831704408#1 831206409#8 831206409#9 831206409#10 826453909#1 826453909#0 826453908#0 826453908#1 826453908#2 826453908#3 826453856#0 826453854#1"/>
    </person>
    <person id="ped32" type="ped_pedestrian" depart="37.41">
        <walk edges="179037246#3 -179037246#1 -179037246#0 145530855#0 145530855#1 145530855#2 43916572#0 43916572#1 43916572#2 806646621 666985000 27923302 28100276 537273265#0 537273265#1 537273265#2 673948497#1 156321380#3 156321380#2 156321380#1 156321380#0 -806646620 -156321379#2 -156321379#1"/>
    </person>
    <person id="ped33" type="ped_pedestrian" depart="38.58">
        <walk edges="45568041#6 768104875#3 768104875#2 768104872#1 506016308#0 760165171 815653312 815653310#9 815653310#8 815653310#6 815653310#5 815653310#4 815653310#3 815653310#2 815653310#1 815653310#0 120196992#6 815653273#2 815653273#3 810417197#1 810417196#2 810417196#1 810417199 810417198#1 571082194#1 571082194#2 333486564#2 810417135#1 43786869#2 27458387#0 27458387#1 27458387#2 43787315#1 43787315#2 -28211753#3 -28211753#2 -28211753#1 -179043329#0 -179043329#1 -179043329#2 -179043329#3 -179043329#4 -179043329#5 -179043329#6 -179043329#8 673659286 673659285 43835914#0 43835914#3 43835914#4 -156322623#4 -156322623#3 -156322623#2 -156322623#1 764142049#1 28100453#2 28100453#1"/>
    </person>
    <person id="ped34" type="ped_pedestrian" depart="39.74">
        <walk edges="156522816#1 156522816#2 807159408#11 807159416 -179043317#2 -179043317#1 -179043317#0 807159531 29047989#0 156522809#3 156522809#2 156522809#1 156522809#0 810417188#0 45562887#5 120715320#1 120715320#2 120715304#4 120715304#2 120715304#1 812418671#0 812418670#1 26542488#29 26542488#1 120196988#3 815653310#0 815653310#1 815653310#2 815653310#3 815653310#4 815653310#5 815653310#6 815653310#8 815653310#9 815653312 760165171 506016308#0 506016308#1 506016309#0 156217857#0 156217857#1 833489503#1 833489505#1 833489486#6"/>
    </person>
    <person id="ped35" type="ped_pedestrian" depart="40.91">
        <walk edges="832176504#19 832176513#0 832176509#1 108144712#7 108144712#4 108144712#2 108144712#1 29993753#0 628549277#3 628549277#6 628549277#7 628549277#8 831206471#1 831206473#1 831206473#2 831206473#3 -643068342#0 -643068342#1 -643068342#2 -24450643#4 831206434#1 831206437#2 831206438 831206437#9 815657392#2 815657392#1 128913064#7 760165170 158065195 158065203 45568041#0"/>
    </person>
    <person id="ped36" type="ped_pedestrian" depart="42.08">
        <walk edges="814928813#1 814928815#1 814928816#2 814928816#3 814928830#0 814928830#1 814928854#0 -29999188#1 29999150#1 628549280#1 29993750#1 832176583#0 146605190#0 -29993730#1 832176611#7 -29993730#3 29993727#7 29993727#4 832204636#17 29993727#2 29993727#0 210585698 210585701#1 210585701#0 43995274#4 830681013#0 830680983#1 830680985#1 830680985#0 826453887#2 636799437#2 43995274#0 158061247 158061227 642650635 765037409#3 765037409#2 765037409#0"/>
    </person>
    <person id="ped37" type="ped_pedestrian" depart="43.25">
        <walk edges="832176604#0 832176604#1 832176601#0 43944285#1 43944285#0 628549277#7 628549277#6 832176554#1 832176550#1 832176549#1 29993748#2 814928856#0 814928811#0 814928855#0 -814928800#1 8617529#6 8617529#5 8617529#4 814928862#0 571082202#0 571082202#1 815653252#1 815653254 338889343#5 338889343#4 338889343#3 338889343#2 338889343#1 571082198 810417200#1 810417201#1 810417201#2 810417201#3 810417201#5 810417132#1 43786869#7 43786869#6 43786869#3 -27458387#0 -27458387#1 27458387#2 -120708835#0 -120708835#1 -120708835#2 145411324#1 145411324#0 179043328#0 179043328#1 179043328#2 -331974632#1 -331974632#0 170308024#0 170308024#1 -170308024#2 -170308024#3 -170308024#4 -170308024#5 -179043327#4 807159462"/>
    </person>
    <person id="ped38" type="ped_pedestrian" depart="44.42">
        <walk edges="28087950#12 809910847#0 790338976#11 146610455#2 146610455#1 146610455#0 790338976#14 809532207#1 809532204#1 120718412#6 120718412#4 120718412#3 120718412#2 673659285 545119341 666985016 666985005 27923306#3 27923306#2 27923306#1 27923306#0 806646622#3 806646622#2 806646622#1 806646622#0 27923302 537273267 771096339#1 28100372#3 28100372#2 28100372#0 210256932#0 210256924#0"/>
    </person>
    <person id="ped39" type="ped_pedestrian" depart="45.59">
        <walk edges="809088714#0 145528115#1 145528115#0 109043727#6 109043727#5 109043727#3 109043727#2 109043727#1 109043727#0 29501300 642650650 151642143#0 807282766#2 807282750#4 807282750#3 807516752 807516756#1 27923306#1"/>
    </person>
    <person id="ped40" type="ped_pedestrian" depart="46.76">
        <walk edges="809532197#0 809532195#1 673659286 -179043329#8 -179043329#6 -179043329#5 -179043329#4 -179043329#3 -179043329#2 -179043329#1 -179043329#0 -28211753#1 -28211753#2 -28211753#3 -28211753#6 43786869#7 810417132#1 810417201#5 810417201#3 810417201#2 810417201#1 810417200#1 571082198 338889343#1 338889343#2 338889343#3 338889343#4 815653251#1 571082205 571082203 814928858#0 8617529#2 -29999176#5 -29999176#4 -29999176#3 -29999176#2 -29999176#1 29999176#0 832176538#1 832176532#3 832176535#0 628549287#1 628549277#0 832176561#1"/>
    </person>
    <person id="ped41" type="ped_pedestrian" depart="47.93">
        <walk edges="768104879#1 768104876#1 768104881#1 156217868#5 156217868#6 670556850 128913063#0 338889346#2 338889346#1 338889346#0 815657392#0 815657392#1 815657392#2 831206437#9 831206438 831206437#1 831206437#0 831206436#1 -146496319#0 -9779641#2 -9779641#1 -831206450#2 24450624#6 24450624#5 831702943#1 831702923#7 831702923#8 831702923#9 831702941 831702932#0 831702933 831702934#1 163927012#2 670556843 621815544 163927006"/>
    </person>
    <person id="ped42" type="ped_pedestrian" depart="49.10">
        <walk edges="991917941 26542488#29 812418670#1 812418671#0 120715304#1 120715304#2 120715304#4 120715320#2 120715320#1 45562887#5 810417188#0 156522809#0 156522809#1 156522809#2 156522809#3 29047989#0 807159531 -179043317#0 -179043317#1 -179043317#2 -179043317#7 179043317#10 179043317#11 179043317#12 179043317#13 179043317#14 666985008 666985011 29501142#2 809088684#0 807282772#4 807282774#1 9777922#0 626351975 151642145#1 9777927#7 9777927#6 9777927#5 9777927#4 9777927#1 9777927#0 806646623#1 806646623#0 145530855#2 97810659#8 97810659#7 97810659#6 808400794 808400690#4"/>
    </person>
    <person id="ped43" type="ped_pedestrian" depart="50.26">
        <walk edges="-813885975#2 -813885977#0 -813885977#1 -813885933#3 -813885933#2 813885933#1 -813885933#0 -813885931#2 -158061265#4 -158061265#2 158061265#0 565151064 163927002 670556843 163926998 670556844 163926996 831702972#4 9041061#11 9041061#10 9041061#8 831702955 831206437#17 9041061#2 9041061#1 9041061#0 158065229 158065219 179256132#0 -179256127#8 -179256127#7"/>
    </person>
    <person id="ped45" type="ped_pedestrian" depart="52.60">
        <walk edges="828792811#0 660237815#2 636799441#2 636799441#1 399291229#2 399291229#3 331975572#2 457948197 666985085 338885082 666985069#0 666985069#2 666985069#3 43787289#15 814928755#1 764142046#6 809532184#2 809532184#3 809532184#4 809532188#1 809532185#1 809532190#1 814532824#2 814532824#1 628210293#1 120461146#0 626351976 625511619#1 45702374#0 45702374#2 147883575#0 147883575#1 824109160#7 824109160#8 824109161#1 628540523#1 628540523#0 29500637#2 29500637#1 29500670#23 29500670#22 29500670#21 29500670#20 29500670#19 29500670#14 29500670#13 29500670#12 29500670#11 29500670#10 29500670#9 29500670#7 29500670#6 29500670#5 28945213#6 -28945213#5 -28945213#4 819823172#0 819823172#1 819823172#2 819823172#3 551968647#3 551968647#4 551968647#5 551968647#6 796442269#0 796442280 796442263"/>
    </person>
    <person id="ped46" type="ped_pedestrian" depart="53.77">
        <walk edges="-29999344#2 467786366 666985074"/>
    </person>
    <person id="ped47" type="ped_pedestrian" depart="54.94">
        <walk edges="991917930 26542488#29 991917951#1 -120715606#1 -120715606#2 -120715606#3 -145411938#0 810417178 810417172#2 812418718#1 520811806#2 10369998 29048024#0 812418711 156522813#0 156522813#1 807159530#4 807159536#1 29048124#3 29048124#2 807159540 807159478#2 -179043327#2 -179043327#3 -179043327#4 -179043327#5 179043327#6 29200688#12 806326974#0 806326889#5 806326875 537092517#1 537092517#0 120704324 145528117 537092519 808739120#1 808739140#0 156314853#2 29501281#0 29501281#2 145515494#0 808739144#1 808400771#13"/>
    </person>
    <person id="ped49" type="ped_pedestrian" depart="57.28">
        <walk edges="-120708843#2 -179043317#13 -179043317#15 161371862 673659286 673659285 545119341 -764142048#3 -764142047#1 -764142047#3 -10152476#1 -10152476#2 -10152476#3 -10152476#4 -537273263#1 808289825#0 808289830 808289831 808289827#1 808289829#1 819823170#6 819823170#5 819823170#4 819823170#3 819823170#2 819823170#1 819823169#1 819823169#0 819823168#2"/>
    </person>
    <person id="ped50" type="ped_pedestrian" depart="58.45">