<?xml version="1.0" encoding="UTF-8"?>
<!-- generated on 2021-10-31 18:01:01.585164 by $Id$ v1_10_0+0000-83496a5972
  options: 
-->
<routes xmlns:xsi="http://www.w3.org/2001/XMLSchema-instance" xsi:noNamespaceSchemaLocation="http://sumo.dlr.de/xsd/routes_file.xsd">
    <vType id="ped_pedestrian" vClass="pedestrian"/>
    <person id="ped0" depart="0.00" type="ped_pedestrian">
        <walk from="814532777#0" to="-145556699#0"/>
    </person>
    <person id="ped1" depart="1.17" type="ped_pedestrian">
        <walk from="29200699#0" to="170867186#0"/>
    </person>
    <person id="ped2" depart="2.34" type="ped_pedestrian">
        <walk from="822485154#2" to="815653297#1"/>
    </person>
    <person id="ped3" depart="3.51" type="ped_pedestrian">
        <walk from="832176544#1" to="-809532219#0"/>
    </person>
    <person id="ped4" depart="4.68" type="ped_pedestrian">
        <walk from="796442262#8" to="-146605194#4"/>
    </person>
    <person id="ped5" depart="5.84" type="ped_pedestrian">
        <walk from="163927003#0" to="808289835#1"/>
    </person>
    <person id="ped6" depart="7.01" type="ped_pedestrian">
        <walk from="-146459515#1" to="156217868#0"/>
    </person>
    <person id="ped7" depart="8.18" type="ped_pedestrian">
        <walk from="814928789#8" to="808739055#0"/>
    </person>
    <person id="ped8" depart="9.35" type="ped_pedestrian">
        <walk from="16735952#0" to="809532220#2"/>
    </person>
    <person id="ped9" depart="10.52" type="ped_pedestrian">
        <walk from="830681022#0" to="-120514961#0"/>
    </person>
    <person id="ped10" depart="11.69" type="ped_pedestrian">
        <walk from="830680997#2" to="818042771#0"/>
    </person>
    <person id="ped11" depart="12.86" type="ped_pedestrian">
        <walk from="567910719" to="120717746#0"/>
    </person>
    <person id="ped12" depart="14.03" type="ped_pedestrian">
        <walk from="833778152#3" to="560086261#2"/>
    </person>
    <person id="ped13" depart="15.20" type="ped_pedestrian">
        <walk from="-814928844" to="-819188373#4"/>
    </person>
    <person id="ped14" depart="16.37" type="ped_pedestrian">
        <walk from="831206486#1" to="809910899#1"/>
    </person>
    <person id="ped15" depart="17.53" type="ped_pedestrian">
        <walk from="830681013#0" to="819823199#1"/>
    </person>
    <person id="ped16" depart="18.70" type="ped_pedestrian">
        <walk from="666984997#2" to="808739120#0"/>
    </person>
    <person id="ped17" depart="19.87" type="ped_pedestrian">
        <walk from="831206431#14" to="810417169#1"/>
    </person>
    <person id="ped18" depart="21.04" type="ped_pedestrian">
        <walk from="831702930#2" to="809088789#3"/>
    </person>
    <person id="ped19" depart="22.21" type="ped_pedestrian">
        <walk from="818042821#0" to="-179043332#0"/>
    </person>
    <person id="ped20" depart="23.38" type="ped_pedestrian">
        <walk from="178756099#3" to="29993730#2"/>
    </person>
    <person id="ped21" depart="24.55" type="ped_pedestrian">
        <walk from="-67165144#4" to="179043317#13"/>
    </person>
    <person id="ped22" depart="25.72" type="ped_pedestrian">
        <walk from="-830680991#1" to="29500586#13"/>
    </person>
    <person id="ped23" depart="26.89" type="ped_pedestrian">
        <walk from="813885931#2" to="636799441#2"/>
    </person>
    <person id="ped24" depart="28.05" type="ped_pedestrian">
        <walk from="642927417#1" to="156522808#1"/>
    </person>
    <person id="ped25" depart="29.22" type="ped_pedestrian">
        <walk from="28100382#1" to="833489463#0"/>
    </person>
    <person id="ped26" depart="30.39" type="ped_pedestrian">
        <walk from="814928784#1" to="810417115#1"/>
    </person>
    <person id="ped27" depart="31.56" type="ped_pedestrian">
        <walk from="130392007#4" to="819823195"/>
    </person>
    <person id="ped28" depart="32.73" type="ped_pedestrian">
        <walk from="124340720#4" to="666985019"/>
    </person>
    <person id="ped29" depart="33.90" type="ped_pedestrian">
        <walk from="97810656#2" to="814532778#3"/>
    </person>
    <person id="ped30" depart="35.07" type="ped_pedestrian">
        <walk from="809088692#1" to="815653333#3"/>
    </person>
    <person id="ped31" depart="36.24" type="ped_pedestrian">
        <walk from="831206470#9" to="826453854#1"/>
    </person>
    <person id="ped32" depart="37.41" type="ped_pedestrian">
        <walk from="179037246#3" to="-156321379#1"/>
    </person>
    <person id="ped33" depart="38.58" type="ped_pedestrian">
        <walk from="45568041#6" to="28100453#1"/>
    </person>
    <person id="ped34" depart="39.74" type="ped_pedestrian">
        <walk from="156522816#1" to="833489486#6"/>
    </person>
    <person id="ped35" depart="40.91" type="ped_pedestrian">
        <walk from="832176504#19" to="45568041#0"/>
    </person>
    <person id="ped36" depart="42.08" type="ped_pedestrian">
        <walk from="814928813#1" to="765037409#0"/>
    </person>
    <person id="ped37" depart="43.25" type="ped_pedestrian">
        <walk from="832176604#0" to="807159462"/>
    </person>
    <person id="ped38" depart="44.42" type="ped_pedestrian">
        <walk from="28087950#12" to="210256924#0"/>
    </person>
    <person id="ped39" depart="45.59" type="ped_pedestrian">
        <walk from="809088714#0" to="27923306#1"/>
    </person>
    <person id="ped40" depart="46.76" type="ped_pedestrian">
        <walk from="809532197#0" to="832176561#1"/>
    </person>
    <person id="ped41" depart="47.93" type="ped_pedestrian">
        <walk from="768104879#1" to="163927006"/>
    </person>
    <person id="ped42" depart="49.10" type="ped_pedestrian">
        <walk from="991917941" to="808400690#4"/>
    </person>
    <person id="ped43" depart="50.26" type="ped_pedestrian">
        <walk from="-813885975#2" to="-179256127#7"/>
    </person>
    <person id="ped44" depart="51.43" type="ped_pedestrian">
        <walk from="-833489524#0" to="812418594#2"/>
    </person>
    <person id="ped45" depart="52.60" type="ped_pedestrian">
        <walk from="828792811#0" to="796442263"/>
    </person>
    <person id="ped46" depart="53.77" type="ped_pedestrian">
        <walk from="-29999344#2" to="666985074"/>
    </person>
    <person id="ped47" depart="54.94" type="ped_pedestrian">
        <walk from="991917930" to="808400771#13"/>
    </person>
    <person id="ped48" depart="56.11" type="ped_pedestrian">
        <walk from="834175052#0" to="831702929#6"/>
    </person>
    <person id="ped49" depart="57.28" type="ped_pedestrian">
        <walk from="-120708843#2" to="819823168#2"/>
    </person>
    <person id="ped50" depart="58.45" type="ped_pedestrian">
        <walk from="815653318" to="808400803#1"/>
    </person>
    <person id="ped51" depart="59.62" type="ped_pedestrian">
        <walk from="28100382#0" to="814532788#1"/>
    </person>
    <person id="ped52" depart="60.79" type="ped_pedestrian">
        <walk from="807159409#3" to="833778128#1"/>
    </person>
    <person id="ped53" depart="61.95" type="ped_pedestrian">
        <walk from="832176504#15" to="27923308#3"/>
    </person>
    <person id="ped54" depart="63.12" type="ped_pedestrian">
        <walk from="807516833#1" to="145556697#1"/>
    </person>
    <person id="ped55" depart="64.29" type="ped_pedestrian">
        <walk from="832176599#1" to="831705104"/>
    </person>
    <person id="ped56" depart="65.46" type="ped_pedestrian">
        <walk from="338889342#0" to="813885976#1"/>
    </person>
    <person id="ped57" depart="66.63" type="ped_pedestrian">
        <walk from="810417114" to="120708843#6"/>
    </person>
    <person id="ped58" depart="67.80" type="ped_pedestrian">
        <walk from="824109142#1" to="808739033#1"/>
    </person>
    <person id="ped59" depart="68.97" type="ped_pedestrian">
        <walk from="-10370002#0" to="520319274#1"/>
    </person>
    <person id="ped60" depart="70.14" type="ped_pedestrian">
        <walk from="-124389620#3" to="832204684"/>
    </person>
    <person id="ped61" depart="71.31" type="ped_pedestrian">
        <walk from="832176506#15" to="831206432#7"/>
    </person>
    <person id="ped62" depart="72.47" type="ped_pedestrian">
        <walk from="43786869#3" to="-29501089#2"/>
    </person>
    <person id="ped63" depart="73.64" type="ped_pedestrian">
        <walk from="832176506#10" to="833489526#1"/>
    </person>
    <person id="ped64" depart="74.81" type="ped_pedestrian">
        <walk from="-808739108#0" to="807516801#0"/>
    </person>
    <person id="ped65" depart="75.98" type="ped_pedestrian">
        <walk from="-520811806#1" to="824109139#0"/>
    </person>
    <person id="ped66" depart="77.15" type="ped_pedestrian">
        <walk from="824109153" to="104739883#2"/>
    </person>
    <person id="ped67" depart="78.32" type="ped_pedestrian">
        <walk from="807516739#4" to="808739107#1"/>
    </person>
    <person id="ped68" depart="79.49" type="ped_pedestrian">
        <walk from="28087950#3" to="832176496#0"/>
    </person>
    <person id="ped69" depart="80.66" type="ped_pedestrian">
        <walk from="796442274#0" to="156973692#1"/>
    </person>
    <person id="ped70" depart="81.83" type="ped_pedestrian">
        <walk from="808739033#1" to="819823200#0"/>
    </person>
    <person id="ped71" depart="82.99" type="ped_pedestrian">
        <walk from="156319913#1" to="43944283#10"/>
    </person>
    <person id="ped72" depart="84.16" type="ped_pedestrian">
        <walk from="991917923" to="814928789#7"/>
    </person>
    <person id="ped73" depart="85.33" type="ped_pedestrian">
        <walk from="796442334#9" to="808400740#1"/>
    </person>
    <person id="ped74" depart="86.50" type="ped_pedestrian">
        <walk from="10073846#5" to="171827599#1"/>
    </person>
    <person id="ped75" depart="87.67" type="ped_pedestrian">
        <walk from="560086267#1" to="809532218#0"/>
    </person>
    <person id="ped76" depart="88.84" type="ped_pedestrian">
        <walk from="-545345101#3" to="812418668#1"/>
    </person>
    <person id="ped77" depart="90.01" type="ped_pedestrian">
        <walk from="179037246#1" to="832176578#5"/>
    </person>
    <person id="ped78" depart="91.18" type="ped_pedestrian">
        <walk from="831702929#10" to="-545345101#2"/>
    </person>
    <person id="ped79" depart="92.35" type="ped_pedestrian">
        <walk from="179251420#2" to="815653257#0"/>
    </person>
    <person id="ped80" depart="93.52" type="ped_pedestrian">
        <walk from="158065195" to="104739935#1"/>
    </person>
    <person id="ped81" depart="94.68" type="ped_pedestrian">
        <walk from="833489457#2" to="809088765#2"/>
    </person>
    <person id="ped82" depart="95.85" type="ped_pedestrian">
        <walk from="807282752#1" to="826453881"/>
    </person>
    <person id="ped83" depart="97.02" type="ped_pedestrian">
        <walk from="830681014#0" to="146609454#0"/>
    </person>
    <person id="ped84" depart="98.19" type="ped_pedestrian">
        <walk from="-819823153#0" to="796442309#1"/>
    </person>
    <person id="ped85" depart="99.36" type="ped_pedestrian">
        <walk from="796442276#0" to="807265550"/>
    </person>
    <person id="ped86" depart="100.53" type="ped_pedestrian">
        <walk from="819823194#1" to="815653277"/>
    </person>
    <person id="ped87" depart="101.70" type="ped_pedestrian">
        <walk from="9776691#3" to="-822485219"/>
    </person>
    <person id="ped88" depart="102.87" type="ped_pedestrian">
        <walk from="771264143#2" to="560126981#0"/>
    </person>
    <person id="ped89" depart="104.04" type="ped_pedestrian">
        <walk from="831702930#2" to="210256940#2"/>
    </person>
    <person id="ped90" depart="105.20" type="ped_pedestrian">
        <walk from="146605195#1" to="807159404#7"/>
    </person>
    <person id="ped91" depart="106.37" type="ped_pedestrian">
        <walk from="796442262#7" to="29500586#6"/>
    </person>
    <person id="ped92" depart="107.54" type="ped_pedestrian">
        <walk from="210256943#1" to="832204645#1"/>
    </person>
    <person id="ped93" depart="108.71" type="ped_pedestrian">
        <walk from="806326972#2" to="831702930#10"/>
    </person>
    <person id="ped94" depart="109.88" type="ped_pedestrian">
        <walk from="808739110#1" to="-27923295#2"/>
    </person>
    <person id="ped95" depart="111.05" type="ped_pedestrian">
        <walk from="991925538" to="831206439#1"/>
    </person>
    <person id="ped96" depart="112.22" type="ped_pedestrian">
        <walk from="833778242" to="832204667#1"/>
    </person>
    <person id="ped97" depart="113.39" type="ped_pedestrian">
        <walk from="831206493#1" to="124386068#1"/>
    </person>
    <person id="ped98" depart="114.56" type="ped_pedestrian">
        <walk from="807516799#1" to="158061280#0"/>
    </person>
    <person id="ped99" depart="115.73" type="ped_pedestrian">
        <walk from="771096340#0" to="-29501254#1"/>
    </person>
    <person id="ped100" depart="116.89" type="ped_pedestrian">
        <walk from="666985008" to="9776694"/>
    </person>
    <person id="ped101" depart="118.06" type="ped_pedestrian">
        <walk from="28087950#4" to="826453879"/>
    </person>
    <person id="ped102" depart="119.23" type="ped_pedestrian">
        <walk from="807159417#1" to="796442273"/>
    </person>
    <person id="ped103" depart="120.40" type="ped_pedestrian">
        <walk from="833778152#3" to="991917925"/>
    </person>
    <person id="ped104" depart="121.57" type="ped_pedestrian">
        <walk from="809088686#2" to="819823160#0"/>
    </person>
    <person id="ped105" depart="122.74" type="ped_pedestrian">
        <walk from="120715606#2" to="331975573#0"/>
    </person>
    <person id="ped106" depart="123.91" type="ped_pedestrian">
        <walk from="833778230" to="809088802#1"/>
    </person>
    <person id="ped107" depart="125.08" type="ped_pedestrian">
        <walk from="808739047#1" to="822485205#1"/>
    </person>
    <person id="ped108" depart="126.25" type="ped_pedestrian">
        <walk from="-29200769#5" to="809532190#1"/>
    </person>
    <person id="ped109" depart="127.41" type="ped_pedestrian">
        <walk from="807516851" to="831216785#0"/>
    </person>
    <person id="ped110" depart="128.58" type="ped_pedestrian">
        <walk from="120718398#1" to="833778181#1"/>
    </person>
    <person id="ped111" depart="129.75" type="ped_pedestrian">
        <walk from="-67165144#7" to="146496313#4"/>
    </person>
    <person id="ped112" depart="130.92" type="ped_pedestrian">
        <walk from="809910849#4" to="815653287#0"/>
    </person>
    <person id="ped113" depart="132.09" type="ped_pedestrian">
        <walk from="179043327#2" to="-996223569#1"/>
    </person>
    <person id="ped114" depart="133.26" type="ped_pedestrian">
        <walk from="832176536#1" to="210104986"/>
    </person>
    <person id="ped115" depart="134.43" type="ped_pedestrian">
        <walk from="809910849#0" to="810417172#2"/>
    </person>
    <person id="ped116" depart="135.60" type="ped_pedestrian">
        <walk from="796442262#10" to="809532185#1"/>
    </person>
    <person id="ped117" depart="136.77" type="ped_pedestrian">
        <walk from="156322619#3" to="819823152#1"/>
    </person>
    <person id="ped118" depart="137.94" type="ped_pedestrian">
        <walk from="179256125#2" to="765037409#2"/>
    </person>
    <person id="ped119" depart="139.10" type="ped_pedestrian">
        <walk from="815653267#1" to="338889346#0"/>
    </person>
    <person id="ped120" depart="140.27" type="ped_pedestrian">
        <walk from="45702368#1" to="822485216#0"/>
    </person>
    <person id="ped121" depart="141.44" type="ped_pedestrian">
        <walk from="-547315452#3" to="807159455#1"/>
    </person>
    <person id="ped122" depart="142.61" type="ped_pedestrian">
        <walk from="991917948" to="991917930"/>
    </person>
    <person id="ped123" depart="143.78" type="ped_pedestrian">
        <walk from="28087950#4" to="833489430#1"/>
    </person>
    <person id="ped124" depart="144.95" type="ped_pedestrian">
        <walk from="832176506#30" to="832176506#19"/>
    </person>
    <person id="ped125" depart="146.12" type="ped_pedestrian">
        <walk from="642919999#2" to="120718412#10"/>
    </person>
    <person id="ped126" depart="147.29" type="ped_pedestrian">
        <walk from="831206437#13" to="818042810#0"/>
    </person>
    <person id="ped127" depart="148.46" type="ped_pedestrian">
        <walk from="810417133#1" to="97810614#1"/>
    </person>
    <person id="ped128" depart="149.62" type="ped_pedestrian">
        <walk from="814928808#4" to="-120514979#4"/>
    </person>
    <person id="ped129" depart="150.79" type="ped_pedestrian">
        <walk from="831206406#5" to="338889344"/>
    </person>
    <person id="ped130" depart="151.96" type="ped_pedestrian">
        <walk from="814928847#5" to="833489463#9"/>
    </person>
    <person id="ped131" depart="153.13" type="ped_pedestrian">
        <walk from="107158430#0" to="-9835015#0"/>
    </person>
    <person id="ped132" depart="154.30" type="ped_pedestrian">
        <walk from="-832176509#3" to="808739140#1"/>
    </person>
    <person id="ped133" depart="155.47" type="ped_pedestrian">
        <walk from="29048024#0" to="809910903#14"/>
    </person>
    <person id="ped134" depart="156.64" type="ped_pedestrian">
        <walk from="819823157#7" to="156321381#1"/>
    </person>
    <person id="ped135" depart="157.81" type="ped_pedestrian">
        <walk from="812418690" to="27923310#2"/>
    </person>
    <person id="ped136" depart="158.98" type="ped_pedestrian">
        <walk from="807516806#11" to="832176578#5"/>
    </person>
    <person id="ped137" depart="160.15" type="ped_pedestrian">
        <walk from="831206481#3" to="-814928842#2"/>
    </person>
    <person id="ped138" depart="161.31" type="ped_pedestrian">
        <walk from="796442276#0" to="29500477#1"/>
    </person>
    <person id="ped139" depart="162.48" type="ped_pedestrian">
        <walk from="-104739890#2" to="826437107#1"/>
    </person>
    <person id="ped140" depart="163.65" type="ped_pedestrian">
        <walk from="822485168#12" to="808739117#1"/>
    </person>
    <person id="ped141" depart="164.82" type="ped_pedestrian">
        <walk from="796442297#3" to="-120708784#1"/>
    </person>
    <person id="ped142" depart="165.99" type="ped_pedestrian">
        <walk from="-584944636#1" to="832176515#1"/>
    </person>
    <person id="ped143" depart="167.16" type="ped_pedestrian">
        <walk from="832176575#2" to="808739058#0"/>
    </person>
    <person id="ped144" depart="168.33" type="ped_pedestrian">
        <walk from="831206437#20" to="809532182#4"/>
    </person>
    <person id="ped145" depart="169.50" type="ped_pedestrian">
        <walk from="120579104#2" to="104739872#0"/>
    </person>
    <person id="ped146" depart="170.67" type="ped_pedestrian">
        <walk from="43787289#12" to="832176563#3"/>
    </person>
    <person id="ped147" depart="171.83" type="ped_pedestrian">
        <walk from="829218174#4" to="831702929#6"/>
    </person>
    <person id="ped148" depart="173.00" type="ped_pedestrian">
        <walk from="832176563#3" to="156522813#0"/>
    </person>
    <person id="ped149" depart="174.17" type="ped_pedestrian">
        <walk from="210256942#6" to="-831206461#1"/>
    </person>
    <person id="ped150" depart="175.34" type="ped_pedestrian">
        <walk from="826453867#4" to="832176518#4"/>
    </person>
    <person id="ped151" depart="176.51" type="ped_pedestrian">
        <walk from="790338937#1" to="810417176#3"/>
    </person>
    <person id="ped152" depart="177.68" type="ped_pedestrian">
        <walk from="120715600" to="832204690#1"/>
    </person>
    <person id="ped153" depart="178.85" type="ped_pedestrian">
        <walk from="831702942#1" to="835160077#0"/>
    </person>
    <person id="ped154" depart="180.02" type="ped_pedestrian">
        <walk from="830681034#1" to="832176506#8"/>
    </person>
    <person id="ped155" depart="181.19" type="ped_pedestrian">
        <walk from="-145556697#4" to="822485154#3"/>
    </person>
    <person id="ped156" depart="182.36" type="ped_pedestrian">
        <walk from="830680984#0" to="831702939#0"/>
    </person>
    <person id="ped157" depart="183.52" type="ped_pedestrian">
        <walk from="830681034#1" to="28100372#3"/>
    </person>
    <person id="ped158" depart="184.69" type="ped_pedestrian">
        <walk from="826453893#0" to="-832176599#5"/>
    </person>
    <person id="ped159" depart="185.86" type="ped_pedestrian">
        <walk from="832176494#1" to="831702927#4"/>
    </person>
    <person id="ped160" depart="187.03" type="ped_pedestrian">
        <walk from="170308026#2" to="831206406#1"/>
    </person>
    <person id="ped161" depart="188.20" type="ped_pedestrian">
        <walk from="807159478#3" to="43341790#1"/>
    </person>
    <person id="ped162" depart="189.37" type="ped_pedestrian">
        <walk from="829218172#1" to="178756099#0"/>
    </person>
    <person id="ped163" depart="190.54" type="ped_pedestrian">
        <walk from="-145524420#0" to="147885844"/>
    </person>
    <person id="ped164" depart="191.71" type="ped_pedestrian">
        <walk from="52924834" to="831702941"/>
    </person>
    <person id="ped165" depart="192.88" type="ped_pedestrian">
        <walk from="833778217#4" to="29500645#10"/>
    </person>
    <person id="ped166" depart="194.04" type="ped_pedestrian">
        <walk from="814532808#1" to="768104880#1"/>
    </person>
    <person id="ped167" depart="195.21" type="ped_pedestrian">
        <walk from="896430795#2" to="808400794"/>
    </person>
    <person id="ped168" depart="196.38" type="ped_pedestrian">
        <walk from="833489464#1" to="-9835015#0"/>
    </person>
    <person id="ped169" depart="197.55" type="ped_pedestrian">
        <walk from="833778187#5" to="28087950#6"/>
    </person>
    <person id="ped170" depart="198.72" type="ped_pedestrian">
        <walk from="819823190#1" to="43995274#2"/>
    </person>
    <person id="ped171" depart="199.89" type="ped_pedestrian">
        <walk from="809916897#0" to="808400703#1"/>
    </person>
    <person id="ped172" depart="201.06" type="ped_pedestrian">
        <walk from="675273766#1" to="809088788#3"/>
    </person>
    <person id="ped173" depart="202.23" type="ped_pedestrian">
        <walk from="217565727#2" to="819188366#1"/>
    </person>
    <person id="ped174" depart="203.40" type="ped_pedestrian">
        <walk from="-10370006#1" to="832204660#0"/>
    </person>
    <person id="ped175" depart="204.56" type="ped_pedestrian">
        <walk from="808400819#0" to="819823162#3"/>
    </person>
    <person id="ped176" depart="205.73" type="ped_pedestrian">
        <walk from="822485168#7" to="815653264#0"/>
    </person>
    <person id="ped177" depart="206.90" type="ped_pedestrian">
        <walk from="636799440#1" to="-52936664#6"/>
    </person>
    <person id="ped178" depart="208.07" type="ped_pedestrian">
        <walk from="814928851#0" to="537092517#0"/>
    </person>
    <person id="ped179" depart="209.24" type="ped_pedestrian">
        <walk from="43995274#4" to="831206490#0"/>
    </person>
    <person id="ped180" depart="210.41" type="ped_pedestrian">
        <walk from="819823162#6" to="338889347#0"/>
    </person>
    <person id="ped181" depart="211.58" type="ped_pedestrian">
        <walk from="43787291#0" to="790338948#1"/>
    </person>
    <person id="ped182" depart="212.75" type="ped_pedestrian">
        <walk from="771264140#1" to="316341993#0"/>
    </person>
    <person id="ped183" depart="213.92" type="ped_pedestrian">
        <walk from="104739866#2" to="796442262#19"/>
    </person>
    <person id="ped184" depart="215.09" type="ped_pedestrian">
        <walk from="833489470" to="815653302"/>
    </person>
    <person id="ped185" depart="216.25" type="ped_pedestrian">
        <walk from="832176574#2" to="810417147#5"/>
    </person>
    <person id="ped186" depart="217.42" type="ped_pedestrian">
        <walk from="338889349#0" to="808739064#1"/>
    </person>
    <person id="ped187" depart="218.59" type="ped_pedestrian">
        <walk from="-10152476#4" to="29501266#6"/>
    </person>
    <person id="ped188" depart="219.76" type="ped_pedestrian">
        <walk from="796442302#5" to="809088806#1"/>
    </person>
    <person id="ped189" depart="220.93" type="ped_pedestrian">
        <walk from="814928811#0" to="807159533#1"/>
    </person>
    <person id="ped190" depart="222.10" type="ped_pedestrian">
        <walk from="806326909#0" to="158061280#0"/>
    </person>
    <person id="ped191" depart="223.27" type="ped_pedestrian">
        <walk from="807282766#0" to="832176568#7"/>
    </person>
    <person id="ped192" depart="224.44" type="ped_pedestrian">
        <walk from="829218174#3" to="128913063#1"/>
    </person>
    <person id="ped193" depart="225.61" type="ped_pedestrian">
        <walk from="-808400732#2" to="808400723#9"/>
    </person>
    <person id="ped194" depart="226.77" type="ped_pedestrian">
        <walk from="812418676" to="551968647#2"/>
    </person>
    <person id="ped195" depart="227.94" type="ped_pedestrian">
        <walk from="831206408#6" to="822485213#1"/>
    </person>
    <person id="ped196" depart="229.11" type="ped_pedestrian">
        <walk from="815653274#1" to="171827599#0"/>
    </person>
    <person id="ped197" depart="230.28" type="ped_pedestrian">
        <walk from="181563638#1" to="807516739#3"/>
    </person>
    <person id="ped198" depart="231.45" type="ped_pedestrian">
        <walk from="831206498" to="-547315452#6"/>
    </person>
    <person id="ped199" depart="232.62" type="ped_pedestrian">
        <walk from="790338976#14" to="812418664#2"/>
    </person>
    <person id="ped200" depart="233.79" type="ped_pedestrian">
        <walk from="151640817#2" to="818042762#2"/>
    </person>
    <person id="ped201" depart="234.96" type="ped_pedestrian">
        <walk from="807516816#4" to="181563632#1"/>
    </person>
    <person id="ped202" depart="236.13" type="ped_pedestrian">
        <walk from="814928816#3" to="-109044270#1"/>
    </person>
    <person id="ped203" depart="237.30" type="ped_pedestrian">
        <walk from="822485212#1" to="824135369#1"/>
    </person>
    <person id="ped204" depart="238.46" type="ped_pedestrian">
        <walk from="-832176501#2" to="796442286#1"/>
    </person>
    <person id="ped205" depart="239.63" type="ped_pedestrian">
        <walk from="145515503" to="833778156#4"/>
    </person>
    <person id="ped206" depart="240.80" type="ped_pedestrian">
        <walk from="808400740#4" to="-27458387#5"/>
    </person>
    <person id="ped207" depart="241.97" type="ped_pedestrian">
        <walk from="210256942#3" to="831206491"/>
    </person>
    <person id="ped208" depart="243.14" type="ped_pedestrian">
        <walk from="807159434#1" to="830680983#1"/>
    </person>
    <person id="ped209" depart="244.31" type="ped_pedestrian">
        <walk from="815653251#1" to="97810625#1"/>
    </person>
    <person id="ped210" depart="245.48" type="ped_pedestrian">
        <walk from="809910849#7" to="833489549#3"/>
    </person>
    <person id="ped211" depart="246.65" type="ped_pedestrian">
        <walk from="832176542#5" to="810417140#1"/>
    </person>
    <person id="ped212" depart="247.82" type="ped_pedestrian">
        <walk from="819823162#2" to="808289829#1"/>
    </person>
    <person id="ped213" depart="248.98" type="ped_pedestrian">
        <walk from="831206431#7" to="808739064#1"/>
    </person>
    <person id="ped214" depart="250.15" type="ped_pedestrian">
        <walk from="832176559#0" to="822485175#0"/>
    </person>
    <person id="ped215" depart="251.32" type="ped_pedestrian">
        <walk from="807282775" to="245849296#1"/>
    </person>
    <person id="ped216" depart="252.49" type="ped_pedestrian">
        <walk from="824109153" to="808400751#0"/>
    </person>
    <person id="ped217" depart="253.66" type="ped_pedestrian">
        <walk from="812418593#3" to="29200688#2"/>
    </person>
    <person id="ped218" depart="254.83" type="ped_pedestrian">
        <walk from="-636667684#1" to="29501177#4"/>
    </person>
    <person id="ped219" depart="256.00" type="ped_pedestrian">
        <walk from="28945213#5" to="45730002#1"/>
    </person>
    <person id="ped220" depart="257.17" type="ped_pedestrian">
        <walk from="808739034#1" to="109043930#4"/>
    </person>
    <person id="ped221" depart="258.34" type="ped_pedestrian">
        <walk from="179037254#4" to="815657392#2"/>
    </person>
    <person id="ped222" depart="259.51" type="ped_pedestrian">
        <walk from="819188353#0" to="-316341993#0"/>
    </person>
    <person id="ped223" depart="260.67" type="ped_pedestrian">
        <walk from="790338945#6" to="808739049#1"/>
    </person>
    <person id="ped224" depart="261.84" type="ped_pedestrian">
        <walk from="790338976#9" to="156519359#1"/>
    </person>
    <person id="ped225" depart="263.01" type="ped_pedestrian">
        <walk from="796442262#17" to="832176578#12"/>
    </person>
    <person id="ped226" depart="264.18" type="ped_pedestrian">
        <walk from="809532188#1" to="818042762#1"/>