<?xml version="1.0" encoding="UTF-8"?>

<!-- generated on 2021-10-31 18:00:48 by Eclipse SUMO polyconvert Version 1.10.0
<configuration xmlns:xsi="http://www.w3.org/2001/XMLSchema-instance" xsi:noNamespaceSchemaLocation="http://sumo.dlr.de/xsd/polyconvertConfiguration.xsd">

    <input>
        <net-file value="osm.net.xml"/>
        <osm-files value="osm_bbox.osm.xml"/>
        <osm.keep-full-type value="true"/>
        <type-file value="C:\Program%20Files%20(x86)\Eclipse\Sumo\data\typemap\osmPolyconvert.typ.xml"/>
    </input>

    <output>
        <output-file value="osm.poly.xml"/>
    </output>

    <processing>
        <poi-layer-offset value="5"/>
    </processing>

    <report>
        <verbose value="true"/>
    </report>

</configuration>
-->

<additional xmlns:xsi="http://www.w3.org/2001/XMLSchema-instance" xsi:noNamespaceSchemaLocation="http://sumo.dlr.de/xsd/additional_file.xsd">
    <location netOffset="-443662.95,-4115970.39" convBoundary="-1497.77,-1347.14,3571.69,5402.71" origBoundary="-3.652030,37.176445,-3.594664,37.237090" projParameter="+proj=utm +zone=30 +ellps=WGS84 +datum=WGS84 +units=m +no_defs"/>

    <poly id="104739849" type="amenity.parking" color="184,184,179" fill="1" layer="-1.00" shape="526.575424,731.805237 540.316783,724.125526 528.392180,701.971540 489.392149,684.357385 477.559635,709.509215 526.575424,731.805237"/>
    <poly id="104739853" type="building.yes" color="255,230,230" fill="1" layer="-1.00" shape="476.535628,711.679416 451.248697,699.510462 473.535599,646.176042 549.191437,681.198051 565.408355,710.878862 541.145688,724.652556 540.316783,724.125526 528.392180,701.971540 489.392149,684.357385 477.559635,709.509215 476.535628,711.679416"/>
    <poly id="104739853#1" type="shop.car" color="237,199,255" fill="1" layer="-1.00" shape="476.535628,711.679416 451.248697,699.510462 473.535599,646.176042 549.191437,681.198051 565.408355,710.878862 541.145688,724.652556 540.316783,724.125526 528.392180,701.971540 489.392149,684.357385 477.559635,709.509215 476.535628,711.679416"/>
    <poly id="104739854" type="leisure.pitch" color="207,245,201" fill="1" layer="-2.00" shape="684.539944,281.204266 708.050444,255.465194 687.637910,236.972791 664.127418,262.711920 684.539944,281.204266"/>
    <poly id="104739854#1" type="sport.multi" color="79,230,125" fill="1" layer="-2.00" shape="684.539944,281.204266 708.050444,255.465194 687.637910,236.972791 664.127418,262.711920 684.539944,281.204266"/>
    <poly id="104739863" type="leisure.pitch" color="207,245,201" fill="1" layer="-2.00" shape="435.701326,360.636708 503.376931,359.000153 500.823326,253.753868 433.164552,255.379222 435.701326,360.636708"/>
    <poly id="104739863#1" type="sport.soccer" color="79,230,125" fill="1" layer="-2.00" shape="435.701326,360.636708 503.376931,359.000153 500.823326,253.753868 433.164552,255.379222 435.701326,360.636708"/>
    <poly id="104739873" type="building.yes" color="255,230,230" fill="1" layer="-1.00" shape="1006.265638,315.504719 1010.543878,319.570393 1009.204449,321.043655 999.127453,331.383301 994.866600,327.262047 1004.810975,317.000929 1006.265638,315.504719"/>
    <poly id="104739874" type="building.yes" color="255,230,230" fill="1" layer="-1.00" shape="641.271696,341.744046 661.013799,358.199414 664.413035,354.149667 668.563132,357.605828 685.031246,338.026277 681.577244,335.142409 685.143884,330.902959 664.955500,314.073281 661.749890,317.877670 657.564050,314.388466 640.999056,334.079655 644.943936,337.370748 641.271696,341.744046"/>
    <poly id="104739875" type="amenity.school" color="237,199,199" fill="1" layer="-1.00" shape="699.545578,233.721044 580.047588,265.554220 652.470323,373.532887 704.676291,347.870155 688.101533,315.107227 696.974693,297.264290 724.056185,284.049351 699.545578,233.721044"/>
    <poly id="104739876" type="building.yes" color="255,230,230" fill="1" layer="-1.00" shape="633.917150,273.906408 678.107663,311.123907 689.653937,297.534601 645.463333,260.305948 633.917150,273.906408"/>
    <poly id="104739881" type="building.yes" color="255,230,230" fill="1" layer="-1.00" shape="981.747235,294.742094 1004.810975,317.000929 1006.265638,315.504719 1009.068898,312.579564 986.013740,290.276282 981.747235,294.742094"/>
    <poly id="104739884" type="building.apartments" color="255,230,230" fill="1" layer="-1.00" shape="918.284072,341.722908 939.289988,331.832618 930.064409,312.411709 909.067330,322.301962 918.284072,341.722908"/>
    <poly id="104739885" type="leisure.pitch" color="207,245,201" fill="1" layer="-2.00" shape="640.401111,326.883379 660.523810,302.941695 640.960116,286.640467 626.323831,304.055667 620.846307,310.582140 640.401111,326.883379"/>
    <poly id="104739885#1" type="sport.multi" color="79,230,125" fill="1" layer="-2.00" shape="640.401111,326.883379 660.523810,302.941695 640.960116,286.640467 626.323831,304.055667 620.846307,310.582140 640.401111,326.883379"/>
    <poly id="104739889" type="building.yes" color="255,230,230" fill="1" layer="-1.00" shape="769.424287,424.359324 780.004987,419.119469 782.028451,423.122259 792.844374,445.439231 792.127675,445.776794 794.583952,450.808505 728.824195,481.674776 723.559574,472.068589 735.539980,466.442214 747.423215,460.883065 749.657780,465.938417 754.204921,463.678404 751.791680,458.446723 779.567418,445.593477 769.424287,424.359324"/>
    <poly id="104739897" type="leisure.pitch" color="207,245,201" fill="1" layer="-2.00" shape="736.372673,409.800048 737.303672,423.084927 732.273510,423.439912 731.342502,410.155034 736.372673,409.800048"/>
    <poly id="104739897#1" type="sport.multi" color="79,230,125" fill="1" layer="-2.00" shape="736.372673,409.800048 737.303672,423.084927 732.273510,423.439912 731.342502,410.155034 736.372673,409.800048"/>
    <poly id="104739900" type="leisure.pitch" color="207,245,201" fill="1" layer="-2.00" shape="745.115368,456.826690 758.766124,450.113158 747.881459,428.151702 734.221800,434.865309 745.115368,456.826690"/>
    <poly id="104739900#1" type="sport.multi" color="79,230,125" fill="1" layer="-2.00" shape="745.115368,456.826690 758.766124,450.113158 747.881459,428.151702 734.221800,434.865309 745.115368,456.826690"/>
    <poly id="104739903" type="building.yes" color="255,230,230" fill="1" layer="-1.00" shape="707.732181,262.367983 716.478176,269.576950 694.463605,296.038332 685.717619,288.829388 707.732181,262.367983"/>
    <poly id="104739911" type="leisure.sports_centre" color="207,245,201" fill="1" layer="-2.00" shape="426.659192,248.799126 497.382314,240.807409 579.474945,359.937673 576.240096,362.000477 572.926077,366.848489 578.235833,372.515789 581.701444,379.826186 583.061171,386.784428 582.596696,394.376045 579.775044,401.195586 576.705233,406.729829 572.055451,410.909941 544.008328,425.640620 541.745706,421.728226 534.587304,425.048545 486.612028,448.776033 481.617600,438.469254 476.992112,440.951822 475.104478,441.385943 430.512669,387.896743 426.659192,248.799126"/>
    <poly id="104739911#1" type="sport.soccer;basketball" color="79,230,125" fill="1" layer="-2.00" shape="426.659192,248.799126 497.382314,240.807409 579.474945,359.937673 576.240096,362.000477 572.926077,366.848489 578.235833,372.515789 581.701444,379.826186 583.061171,386.784428 582.596696,394.376045 579.775044,401.195586 576.705233,406.729829 572.055451,410.909941 544.008328,425.640620 541.745706,421.728226 534.587304,425.048545 486.612028,448.776033 481.617600,438.469254 476.992112,440.951822 475.104478,441.385943 430.512669,387.896743 426.659192,248.799126"/>
    <poly id="104739914" type="building.yes" color="255,230,230" fill="1" layer="-1.00" shape="1014.512222,317.003689 1025.507572,327.537577 1022.933175,330.172769 1023.621029,330.845001 1021.433430,332.911839 1016.609207,328.150807 1016.106155,328.586795 1014.204609,326.912960 1014.795174,326.287793 1009.204449,321.043655 1010.543878,319.570393 1011.266407,318.766848 1012.044038,319.593809 1014.512222,317.003689"/>
    <poly id="104739920" type="building.yes" color="255,230,230" fill="1" layer="-1.00" shape="721.568080,411.151578 726.043426,420.851736 719.088425,424.070703 720.763360,427.709670 717.368675,431.104798 713.121085,433.030019 713.251281,433.927800 712.909546,434.595721 712.291432,435.076865 711.484588,435.204239 710.781167,434.864965 710.351853,434.368559 709.024816,435.020807 710.653543,438.382719 712.773783,440.909305 705.142826,449.280533 700.937990,442.906902 695.679030,431.481221 693.714075,432.304106 690.154329,425.504628 721.568080,411.151578"/>
    <poly id="104739925" type="building.yes" color="255,230,230" fill="1" layer="-1.00" shape="1005.884553,350.676293 1002.848822,343.895429 1017.961553,336.740030 1021.030806,343.221131 1005.884553,350.676293"/>
    <poly id="104739926" type="leisure.pitch" color="207,245,201" fill="1" layer="-2.00" shape="743.459197,410.363400 752.649832,428.475211 787.557340,410.926339 778.366762,392.814492 743.459197,410.363400"/>
    <poly id="104739926#1" type="sport.multi" color="79,230,125" fill="1" layer="-2.00" shape="743.459197,410.363400 752.649832,428.475211 787.557340,410.926339 778.366762,392.814492 743.459197,410.363400"/>
    <poly id="104739932" type="leisure.pitch" color="207,245,201" fill="1" layer="-2.00" shape="507.961636,354.376661 507.147867,306.654148 539.940317,306.103744 540.736148,353.826376 507.961636,354.376661"/>
    <poly id="104739932#1" type="sport.multi;basketball;futsal" color="79,230,125" fill="1" layer="-2.00" shape="507.961636,354.376661 507.147867,306.654148 539.940317,306.103744 540.736148,353.826376 507.961636,354.376661"/>
    <poly id="104739936" type="leisure.pitch" color="207,245,201" fill="1" layer="-2.00" shape="640.960116,286.640467 607.714065,258.925073 593.077799,276.340330 626.323831,304.055667 640.960116,286.640467"/>
    <poly id="104739936#1" type="sport.multi" color="79,230,125" fill="1" layer="-2.00" shape="640.960116,286.640467 607.714065,258.925073 593.077799,276.340330 626.323831,304.055667 640.960116,286.640467"/>
    <poly id="104739937" type="leisure.pitch" color="207,245,201" fill="1" layer="-2.00" shape="763.177282,448.763786 775.194274,443.292548 766.080803,423.416202 754.063715,428.876359 763.177282,448.763786"/>
    <poly id="104739937#1" type="sport.multi" color="79,230,125" fill="1" layer="-2.00" shape="763.177282,448.763786 775.194274,443.292548 766.080803,423.416202 754.063715,428.876359 763.177282,448.763786"/>
    <poly id="104739940" type="amenity.school" color="237,199,199" fill="1" layer="-1.00" shape="779.089393,383.967523 809.569649,443.287449 794.583952,450.808505 728.824195,481.674776 727.469586,482.182977 705.142826,449.280533 700.937990,442.906902 693.714075,432.304106 690.154329,425.504628 721.568080,411.151578 779.089393,383.967523"/>
    <poly id="106608585" type="building.yes" color="255,230,230" fill="1" layer="-1.00" shape="2287.228671,289.803050 2293.403895,286.679157 2308.202539,260.845295 2306.376670,257.096050 2261.246506,279.707791 2263.449936,284.197918 2287.228671,289.803050"/>
    <poly id="106956245" type="leisure.garden" color="207,245,201" fill="1" layer="-2.00" shape="2585.080621,247.932891 2575.346868,241.460546 2579.059060,229.288560 2586.335529,229.020178 2591.791234,242.453806 2589.381970,246.008281 2587.260681,244.623953 2585.080621,247.932891"/>
    <poly id="107123478" type="building.yes" color="255,230,230" fill="1" layer="-1.00" shape="2648.931126,258.730396 2621.488337,302.006955 2624.669745,304.005804 2626.928054,300.441208 2627.872742,301.045363 2627.160989,302.170432 2645.839579,313.922099 2640.936190,321.641750 2622.507184,310.054914 2620.257683,313.608362 2606.934922,305.228492 2612.690630,296.160967 2616.094848,298.302616 2643.397031,255.248822 2648.931126,258.730396"/>
    <poly id="107123479" type="building.yes" color="255,230,230" fill="1" layer="-1.00" shape="2666.833311,318.503210 2654.223043,310.495927 2671.904943,282.891423 2669.391814,281.298782 2674.401121,273.478625 2677.074646,275.170093 2678.498311,272.942152 2682.669062,275.589276 2681.262935,277.783822 2687.563610,281.781963 2682.448852,289.769200 2679.953549,288.187536 2665.892546,310.166296 2670.357374,313.000141 2666.833311,318.503210"/>
    <poly id="107123480" type="leisure.pitch" color="207,245,201" fill="1" layer="-2.00" shape="2678.611052,266.961603 2645.462325,246.471141 2655.284980,230.721110 2688.433743,251.211611 2678.611052,266.961603"/>
    <poly id="107123480#1" type="sport.multi" color="79,230,125" fill="1" layer="-2.00" shape="2678.611052,266.961603 2645.462325,246.471141 2655.284980,230.721110 2688.433743,251.211611 2678.611052,266.961603"/>
    <poly id="107123482" type="amenity.school" color="237,199,199" fill="1" layer="-1.00" shape="2721.959764,376.873825 2710.295583,369.670313 2694.578180,360.151766 2685.007440,354.155313 2620.257683,313.608362 2606.934922,305.228492 2612.690630,296.160967 2680.041983,189.336739 2680.817620,189.875413 2701.902524,203.142872 2702.706379,208.107994 2700.294518,275.299368 2690.665042,346.397595 2699.683322,352.053653 2717.912416,362.942989 2723.891519,366.632565 2721.959764,376.873825"/>
    <poly id="107123483" type="building.yes" color="255,230,230" fill="1" layer="-1.00" shape="2658.803661,332.866097 2677.295615,344.596835 2677.497766,344.284905 2680.898702,338.960134 2682.401457,336.609651 2663.909565,324.889995 2658.803661,332.866097"/>
    <poly id="107123484" type="building.yes" color="255,230,230" fill="1" layer="-1.00" shape="2710.295583,369.670313 2721.959764,376.873825 2723.891519,366.632565 2717.912416,362.942989 2715.847717,366.251158 2715.188326,365.844872 2713.404881,368.718571 2711.595977,367.598483 2710.295583,369.670313"/>
    <poly id="107123485" type="building.house" color="255,230,230" fill="1" layer="-1.00" shape="2685.007440,354.155313 2694.578180,360.151766 2699.683322,352.053653 2690.665042,346.397595 2688.643593,349.527986 2687.903827,349.044554 2685.007440,354.155313"/>
    <poly id="107158427" type="leisure.garden" color="207,245,201" fill="1" layer="-2.00" shape="2775.235768,295.290859 2754.663242,292.737052 2754.375665,209.964307 2781.661486,215.770382 2775.596368,240.405059 2856.534509,261.279922 2852.868956,286.431813 2780.112758,272.250229 2775.235768,295.290859"/>
    <poly id="107158437" type="building.apartments" color="255,230,230" fill="1" layer="-1.00" shape="2706.885332,309.494365 2704.500659,322.478809 2711.724964,323.786257 2710.618302,329.795330 2703.225158,328.455676 2701.123833,339.940583 2704.376103,340.530034 2704.058819,342.273862 2726.282797,346.325844 2728.727574,333.019289 2722.845015,331.947349 2721.590232,330.036032 2722.124029,327.447658 2723.890194,326.038519 2730.003728,327.142271 2732.388228,314.124553 2706.885332,309.494365"/>
    <poly id="107158440" type="building.apartments" color="255,230,230" fill="1" layer="-1.00" shape="2710.546230,234.950600 2709.856314,245.073001 2716.294058,245.509019 2715.880939,251.713366 2709.603099,251.298518 2709.019018,259.922514 2714.151425,260.267003 2713.680636,267.170660 2708.335152,266.816435 2707.726923,275.828886 2714.146893,276.265015 2713.740885,282.191961 2707.276542,281.756115 2707.106143,284.264513 2706.570086,292.067225 2732.853723,293.852297 2733.568380,283.430194 2727.166238,283.005031 2727.555565,277.244607 2733.913334,277.670053 2734.521803,268.690886 2725.677775,268.103775 2726.148292,261.155744 2734.859195,261.743704 2735.460063,252.964283 2728.809244,252.518514 2729.231460,246.347392 2735.900035,246.793048 2736.590124,236.692837 2710.546230,234.950600"/>
    <poly id="107274424" type="building.yes" color="255,230,230" fill="0" layer="-1.00" shape="2829.432124,250.790646 2855.066795,257.983152 2857.248959,249.404481 2851.550416,247.965168 2854.780343,235.263850 2838.698175,231.205747 2835.701841,242.951477 2831.701606,241.989526"/>
    <poly id="107274431" type="building.yes" color="255,230,230" fill="1" layer="-1.00" shape="2797.572972,328.276246 2799.309220,317.980779 2796.412318,317.444501 2798.031231,308.237022 2782.285967,305.497107 2780.710458,314.548992 2775.494253,313.583716 2773.634767,324.035294 2797.572972,328.276246"/>
    <poly id="107274438" type="building.yes" color="255,230,230" fill="0" layer="-1.00" shape="2834.470276,283.764141 2810.421154,278.847035"/>
    <poly id="107274453" type="building.yes" color="255,230,230" fill="0" layer="-1.00" shape="2805.088231,244.200189 2807.532375,234.954179"/>
    <poly id="107274465" type="building.yes" color="255,230,230" fill="1" layer="-1.00" shape="2823.101818,332.817788 2849.981169,337.583800 2851.675359,327.643630 2846.548066,326.699933 2848.173650,317.137404 2831.735859,314.357423 2830.161993,323.675551 2824.848030,322.688678 2823.101818,332.817788"/>
    <poly id="107274472" type="building.yes" color="255,230,230" fill="1" layer="-1.00" shape="2775.494253,313.583716 2772.179710,312.972446 2773.859242,303.531595 2757.633841,300.661651 2755.971300,309.980359 2751.154977,309.090211 2749.269953,319.708372 2773.634767,324.035294 2775.494253,313.583716"/>
    <poly id="107274488" type="building.yes" color="255,230,230" fill="0" layer="-1.00" shape="2810.421154,278.847035 2784.478925,273.531560 2782.314169,286.226127 2785.601743,286.782101 2784.155827,295.278446 2801.181920,298.442892 2802.679481,289.691053 2808.188444,290.632294"/>
    <poly id="107274518" type="building.yes" color="255,230,230" fill="0" layer="-1.00" shape="2807.532375,234.954179 2803.949422,234.011775 2807.199645,221.720798 2792.690012,217.907945 2789.743176,229.054284 2784.106453,227.570246 2781.350160,237.972058 2805.088231,244.200189"/>
    <poly id="107274552" type="building.yes" color="255,230,230" fill="0" layer="-1.00" shape="2808.188444,290.632294 2810.421154,278.847035"/>
    <poly id="107274567" type="building.yes" color="255,230,230" fill="0" layer="-1.00" shape="2829.432124,250.790646 2831.701606,241.989526"/>
    <poly id="107274616" type="building.yes" color="255,230,230" fill="0" layer="-1.00" shape="2832.489981,294.771187 2834.470276,283.764141"/>
    <poly id="107274627" type="building.yes" color="255,230,230" fill="0" layer="-1.00" shape="2834.470276,283.764141 2859.745867,288.939782 2858.008762,299.113203 2852.277714,298.140058 2850.580554,307.614286 2833.661146,304.471250 2835.315533,295.252460 2832.489981,294.771187"/>
    <poly id="120186301" type="building.apartments" color="255,230,230" fill="1" layer="-1.00" shape="1316.698552,267.038789 1333.989364,256.286251 1338.007637,262.694692 1349.004096,280.240607 1331.713244,290.982022 1316.698552,267.038789"/>
    <poly id="120186303" type="building.apartments" color="255,230,230" fill="1" layer="-1.00" shape="1340.700485,305.312613 1381.528932,279.473349 1386.077765,286.943403 1392.827767,297.128288 1351.641747,322.570440 1340.700485,305.312613"/>
    <poly id="120186309" type="building.yes" color="255,230,230" fill="1" layer="-1.00" shape="1415.767127,262.441835 1441.110329,237.014623 1426.370061,222.444120 1404.289555,244.599430 1399.930071,240.301109 1372.532432,267.794322 1389.881154,284.921579 1399.413400,275.351479 1404.344662,280.222971 1411.598667,287.398015 1423.423630,275.527540 1424.602302,271.170868 1415.767127,262.441835"/>
    <poly id="120186330" type="building.apartments" color="255,230,230" fill="1" layer="-1.00" shape="1333.989364,256.286251 1326.472873,244.275859 1342.994260,233.938862 1345.084004,237.253501 1352.079606,248.335390 1354.590839,252.312936 1338.007637,262.694692 1333.989364,256.286251"/>
    <poly id="120186338" type="landuse.industrial" color="209,209,204" fill="1" layer="-3.00" shape="1678.025244,149.690623 1445.136492,282.730278 1462.582329,239.936567 1482.269970,197.893789 1508.930322,138.897860 1512.760051,140.903163 1542.262131,118.855129 1565.550217,99.388257 1573.464137,93.401272 1583.083701,86.271574 1600.254559,70.616687 1604.834101,66.448709 1617.116566,55.230110 1621.739925,50.973102 1634.949195,36.220507 1637.755578,33.728226 1637.005331,33.011973 1649.856227,20.469504 1654.820301,14.002530 1731.128951,-11.832538 1748.642449,-17.160524 1754.614341,-10.587056 1761.620679,-1.901280 1760.470651,11.008874 1761.951327,92.853164 1758.669102,99.985917 1680.845945,149.406033 1678.025244,149.690623"/>
    <poly id="120186350" type="building.apartments" color="255,230,230" fill="1" layer="-1.00" shape="1333.989364,256.286251 1316.698552,267.038789 1301.701963,243.162031 1319.010412,232.387158 1326.472873,244.275859 1333.989364,256.286251"/>
    <poly id="120186357" type="building.apartments" color="255,230,230" fill="1" layer="-1.00" shape="1363.633364,266.953831 1354.590839,252.312936 1352.079606,248.335390 1359.487810,243.782672 1360.402824,245.263333 1363.275896,243.491652 1362.378852,242.044157 1369.574854,237.614873 1381.101743,256.200230 1363.633364,266.953831"/>
    <poly id="120186358" type="leisure.pitch" color="207,245,201" fill="1" layer="-2.00" shape="1293.222051,287.395154 1310.018742,277.100665 1289.995995,244.714168 1273.208065,254.997544 1293.222051,287.395154"/>
    <poly id="120186358#1" type="sport.multi" color="79,230,125" fill="1" layer="-2.00" shape="1293.222051,287.395154 1310.018742,277.100665 1289.995995,244.714168 1273.208065,254.997544 1293.222051,287.395154"/>
    <poly id="120186370" type="leisure.park" color="207,245,201" fill="1" layer="-2.00" shape="1154.717212,69.866180 1155.553121,67.397754 1160.492497,66.699697 1165.326603,64.837428 1169.943331,60.957419 1172.470278,57.834435 1174.847721,57.630243 1177.432282,61.940087 1216.743984,124.210093 1249.024485,175.498549 1288.515846,238.255857 1313.736874,278.330005 1314.337918,283.373996 1313.105616,287.664469 1310.447009,291.010160 1306.070367,293.590487 1301.383109,294.819339 1297.205130,293.848184 1293.076429,290.913011 1268.194712,251.158438 1229.086648,188.664976 1197.145090,137.640636 1154.717212,69.866180"/>
    <poly id="120210843" type="building.yes" color="255,230,230" fill="1" layer="-1.00" shape="1192.733339,220.178129 1198.896083,213.847245 1225.282408,197.332385 1257.787016,249.007708 1237.758273,260.466186 1192.733339,220.178129"/>
    <poly id="120210854" type="building.yes" color="255,230,230" fill="1" layer="-1.00" shape="1158.903101,241.179652 1183.151368,219.431059 1198.122682,235.330950 1239.720171,271.359069 1262.924007,256.817771 1291.669440,302.415949 1274.385547,312.846797 1236.606142,327.128508 1158.903101,241.179652"/>
    <poly id="120226350" type="building.yes" color="255,230,230" fill="1" layer="-1.00" shape="1050.324385,337.015420 1097.241063,295.025764 1155.123340,356.396964 1155.025569,357.728926 1094.428289,380.304244 1068.144775,355.603378 1050.324385,337.015420"/>
    <poly id="120226351" type="building.yes" color="255,230,230" fill="1" layer="-1.00" shape="982.880537,272.734555 1033.800053,228.011192 1076.239968,273.263469 1065.658957,282.563474 1081.370472,298.979732 1044.016388,332.020049 982.880537,272.734555"/>
    <poly id="120226352" type="building.yes" color="255,230,230" fill="1" layer="-1.00" shape="1104.758780,288.253232 1140.150010,257.655733 1156.404355,275.655056 1168.070824,265.382841 1216.019442,318.421191 1215.260447,319.080730 1224.487665,329.371290 1224.025330,331.959299 1166.331018,353.327979 1104.758780,288.253232"/>
    <poly id="120226354" type="building.yes" color="255,230,230" fill="1" layer="-1.00" shape="877.991664,336.873957 899.368924,326.770326 927.605475,386.471564 906.387580,396.496415 877.991664,336.873957"/>
    <poly id="120226357" type="building.apartments" color="255,230,230" fill="1" layer="-1.00" shape="746.250222,509.018114 766.423157,499.421338 779.608236,525.683326 763.028915,535.123197 746.250222,509.018114"/>
    <poly id="120226359" type="building.yes" color="255,230,230" fill="1" layer="-1.00" shape="853.564100,421.429737 875.350988,411.567414 846.597469,351.581302 825.051629,361.675087 853.564100,421.429737"/>
    <poly id="120226361" type="building.apartments" color="255,230,230" fill="1" layer="-1.00" shape="832.038817,470.930501 841.150033,490.496289 872.427609,474.336321 863.320108,455.325193 832.038817,470.930501"/>
    <poly id="120226362" type="building.apartments" color="255,230,230" fill="1" layer="-1.00" shape="785.453410,522.416266 803.051890,512.736730 790.409781,488.046518 772.191765,496.654019 785.453410,522.416266"/>
    <poly id="120226364" type="building.apartments" color="255,230,230" fill="1" layer="-1.00" shape="923.314817,501.781184 945.320750,491.507104 905.123539,406.711543 882.860704,417.087266 923.314817,501.781184"/>
    <poly id="120226365" type="building.yes" color="255,230,230" fill="1" layer="-1.00" shape="886.815080,276.418175 882.159341,266.264257 906.128307,254.778959 910.905867,264.565974 886.815080,276.418175"/>
    <poly id="120226370" type="building.apartments" color="255,230,230" fill="1" layer="-1.00" shape="783.121221,563.048090 849.425525,525.999086 857.929057,543.605201 794.659197,580.489876 783.121221,563.048090"/>
    <poly id="120226372" type="building.apartments" color="255,230,230" fill="1" layer="-1.00" shape="1000.963449,448.571872 1023.322947,438.040506 990.525919,369.016431 968.175077,379.536729 1000.963449,448.571872"/>
    <poly id="120226373" type="building.apartments" color="255,230,230" fill="1" layer="-1.00" shape="993.296398,365.159560 1015.495333,354.473914 1055.754004,439.302859 980.692885,474.410844 940.630109,389.769556 962.316701,379.475443 998.826407,455.619746 1029.528850,441.017362 993.296398,365.159560"/>
    <poly id="120226374" type="building.yes" color="255,230,230" fill="1" layer="-1.00" shape="964.169582,369.711317 986.061555,359.593424 957.373494,300.017009 935.783965,310.255019 964.169582,369.711317"/>
    <poly id="120226375" type="building.yes" color="255,230,230" fill="1" layer="-1.00" shape="906.980590,234.603827 927.561750,254.515718 938.426917,243.904534 912.476208,218.658329 890.475246,239.216902 874.673564,252.279261 878.144207,257.692609 884.593285,254.443830 894.143822,246.381858 906.980590,234.603827"/>
    <poly id="120226376" type="building.apartments" color="255,230,230" fill="1" layer="-1.00" shape="778.835844,552.525665 796.990166,542.354292 798.920520,545.703135 846.347181,519.495915 837.861078,500.502903 789.116401,527.395628 790.889426,531.111621 772.346119,541.518558 778.835844,552.525665"/>
    <poly id="120226378" type="building.yes" color="255,230,230" fill="1" layer="-1.00" shape="901.752633,398.912243 880.614457,408.903352 851.934166,349.249570 873.312095,339.256811 901.752633,398.912243"/>
    <poly id="120226380" type="building.yes" color="255,230,230" fill="1" layer="-1.00" shape="1046.851700,365.029270 1053.425668,361.879647 1046.263325,347.082491 1043.219679,348.544762 1040.259211,342.406862 1025.085219,349.695756 1028.360565,356.475052 1040.013164,350.884557 1046.851700,365.029270"/>
    <poly id="120226383" type="building.yes" color="255,230,230" fill="1" layer="-1.00" shape="1268.083021,323.582994 1270.513596,327.439006 1282.948053,346.351122 1283.754387,347.499656 1248.766136,361.041916 1238.971011,334.501846 1268.083021,323.582994"/>
    <poly id="120226386" type="building.apartments" color="255,230,230" fill="1" layer="-1.00" shape="918.898954,503.762881 897.034941,514.013907 856.996511,429.128764 878.879036,418.966272 918.898954,503.762881"/>
    <poly id="120226388" type="building.apartments" color="255,230,230" fill="1" layer="-1.00" shape="1079.763562,425.931743 1078.016833,422.148953 1083.264429,419.762481 1084.984239,423.501072 1099.930375,416.668648 1097.157153,410.651537 1100.280882,409.222043 1093.545841,394.599552 1087.271824,397.469814 1093.979883,412.037007 1082.998067,417.046117 1077.505650,405.133589 1071.488228,407.880141 1077.106801,420.080289 1062.364237,426.822661 1065.047486,432.651749 1079.763562,425.931743"/>
    <poly id="120226391" type="building.apartments" color="255,230,230" fill="1" layer="-1.00" shape="1034.934511,369.523156 1041.872493,383.944570 1047.473220,381.267302 1049.398936,385.270797 1063.201726,378.678805 1068.052005,388.764976 1054.452631,395.244681 1056.351423,399.203977 1050.511728,401.982658 1057.368759,416.249296 1062.925239,413.594518 1057.049111,401.373883 1071.851730,394.309372 1069.899036,390.250577 1075.101618,387.764548 1068.181739,373.387366 1062.359772,376.165922 1060.110175,371.498892 1046.678972,377.910937 1041.198855,366.530880 1034.934511,369.523156"/>
    <poly id="120226395" type="building.apartments" color="255,230,230" fill="1" layer="-1.00" shape="949.565585,489.160434 971.173001,479.011086 931.118878,394.347596 909.511289,404.497044 949.565585,489.160434"/>
    <poly id="120226396" type="building.yes" color="255,230,230" fill="1" layer="-1.00" shape="1296.173364,311.151004 1306.362046,328.679961 1302.365875,337.858932 1294.604948,342.746841 1288.929486,344.869714 1282.948053,346.351122 1270.513596,327.439006 1296.173364,311.151004"/>
    <poly id="120226398" type="building.yes" color="255,230,230" fill="1" layer="-1.00" shape="823.794293,448.208207 830.296684,461.134592 855.898601,448.373606 849.396241,435.447202 823.794293,448.208207"/>
    <poly id="120226400" type="building.yes" color="255,230,230" fill="1" layer="-1.00" shape="1181.146002,386.025694 1239.835688,364.883574 1230.107835,337.777261 1171.789801,358.772783 1181.146002,386.025694"/>
    <poly id="120226402" type="building.yes" color="255,230,230" fill="1" layer="-1.00" shape="1162.238328,362.651879 1172.153192,389.823456 1122.852507,407.986611 1101.047960,386.817531 1101.718758,384.893805 1162.238328,362.651879"/>
    <poly id="120226403" type="building.yes" color="255,230,230" fill="1" layer="-1.00" shape="1041.323156,220.706040 1081.568084,185.827265 1144.581649,241.817224 1098.392137,282.437224 1041.323156,220.706040"/>