<?xml version="1.0" encoding="UTF-8"?>

<!-- generated on 2021-10-31 18:00:57 by Eclipse SUMO duarouter Version 1.10.0
<configuration xmlns:xsi="http://www.w3.org/2001/XMLSchema-instance" xsi:noNamespaceSchemaLocation="http://sumo.dlr.de/xsd/duarouterConfiguration.xsd">

    <input>
        <net-file value="C:\Users\juane\Sumo\2021-10-31-18-00-15\osm.net.xml"/>
        <route-files value="C:\Users\juane\Sumo\2021-10-31-18-00-15\osm.passenger.trips.xml"/>
    </input>

    <output>
        <output-file value="C:\Users\juane\Sumo\2021-10-31-18-00-15\osm.passenger.trips.xml.tmp"/>
        <write-trips value="true"/>
    </output>

    <time>
        <begin value="0"/>
        <end value="3600"/>
    </time>

    <report>
        <no-warnings value="true"/>
        <ignore-errors value="true"/>
        <no-step-log value="true"/>
    </report>

</configuration>
-->

<routes xmlns:xsi="http://www.w3.org/2001/XMLSchema-instance" xsi:noNamespaceSchemaLocation="http://sumo.dlr.de/xsd/routes_file.xsd">
    <vType id="veh_passenger" vClass="passenger"/>
    <trip id="veh0" type="veh_passenger" depart="0.00" departLane="best" from="29999176#1" to="-123894777#1"/>
    <trip id="veh1" type="veh_passenger" depart="1.61" departLane="best" from="104739880#4" to="-9776691#3"/>
    <trip id="veh2" type="veh_passenger" depart="3.21" departLane="best" from="52936664#6" to="43916572#2"/>
    <trip id="veh3" type="veh_passenger" depart="4.82" departLane="best" departSpeed="max" from="814532778#0" to="-179037246#6"/>
    <trip id="veh4" type="veh_passenger" depart="6.42" departLane="best" from="158065195" to="-124338166#0"/>
    <trip id="veh5" type="veh_passenger" depart="8.03" departLane="best" from="-814928846#2" to="210256941#0"/>
    <trip id="veh6" type="veh_passenger" depart="9.64" departLane="best" from="-120708839#2" to="-814928800#1"/>
    <trip id="veh7" type="veh_passenger" depart="11.24" departLane="best" departSpeed="max" from="331975572#0" to="27923306#1"/>
    <trip id="veh8" type="veh_passenger" depart="12.85" departLane="best" from="-815653310#1" to="29500477#6"/>
    <trip id="veh9" type="veh_passenger" depart="14.45" departLane="best" from="666984997#3" to="-10370006#6"/>
    <trip id="veh10" type="veh_passenger" depart="16.06" departLane="best" from="644731733" to="45726940#9"/>
    <trip id="veh11" type="veh_passenger" depart="17.67" departLane="best" from="124389673#2" to="-399291230#0"/>
    <trip id="veh13" type="veh_passenger" depart="20.88" departLane="best" from="-171988535#2" to="-179043324#5"/>
    <trip id="veh14" type="veh_passenger" depart="22.48" departLane="best" from="764137061#3" to="29500670#20"/>
    <trip id="veh15" type="veh_passenger" depart="24.09" departLane="best" from="666984997#0" to="52935154#0"/>
    <trip id="veh17" type="veh_passenger" depart="27.30" departLane="best" from="146459516#6" to="28087950#2"/>
    <trip id="veh18" type="veh_passenger" depart="28.91" departLane="best" from="67165142#3" to="29501266#4"/>
    <trip id="veh19" type="veh_passenger" depart="30.51" departLane="best" from="765037409#3" to="29048124#3"/>
    <trip id="veh20" type="veh_passenger" depart="32.12" departLane="best" from="45729997#1" to="-145524418#0"/>
    <trip id="veh21" type="veh_passenger" depart="33.72" departLane="best" from="-819823153#0" to="120530042#1"/>
    <trip id="veh22" type="veh_passenger" depart="35.33" departLane="best" from="-179037249#9" to="120196979#9"/>
    <trip id="veh23" type="veh_passenger" depart="36.94" departLane="best" from="29993782#10" to="146459516#0"/>
    <trip id="veh24" type="veh_passenger" depart="38.54" departLane="best" from="145556699#0" to="-823818142#0"/>
    <trip id="veh25" type="veh_passenger" depart="40.15" departLane="best" from="331974632#1" to="29500695#4"/>
    <trip id="veh26" type="veh_passenger" depart="41.75" departLane="best" from="-43787315#5" to="520814113#1"/>
    <trip id="veh27" type="veh_passenger" depart="43.36" departLane="best" from="-331974632#0" to="146609458"/>
    <trip id="veh28" type="veh_passenger" depart="44.97" departLane="best" from="9835018#3" to="29999176#5"/>
    <trip id="veh29" type="veh_passenger" depart="46.57" departLane="best" from="28087950#6" to="43995274#4"/>
    <trip id="veh30" type="veh_passenger" depart="48.18" departLane="best" from="708595279" to="628553435#1"/>
    <trip id="veh31" type="veh_passenger" depart="49.78" departLane="best" departSpeed="max" from="-819823167#1" to="-124338297#3"/>
    <trip id="veh32" type="veh_passenger" depart="51.39" departLane="best" from="120708843#6" to="109043727#6"/>
    <trip id="veh33" type="veh_passenger" depart="53.00" departLane="best" from="-764142047#3" to="833778166#4"/>
    <trip id="veh34" type="veh_passenger" depart="54.60" departLane="best" from="807516829#1" to="123894777#5"/>
    <trip id="veh35" type="veh_passenger" depart="56.21" departLane="best" departSpeed="max" from="399291230#0" to="156217865#0"/>
    <trip id="veh36" type="veh_passenger" depart="57.81" departLane="best" from="824109121#0" to="179037237#1"/>
    <trip id="veh37" type="veh_passenger" depart="59.42" departLane="best" from="10370002#5" to="10370006#0"/>
    <trip id="veh38" type="veh_passenger" depart="61.02" departLane="best" from="28100372#2" to="108144707#2"/>
    <trip id="veh39" type="veh_passenger" depart="62.63" departLane="best" from="29200688#12" to="814928804#1"/>
    <trip id="veh40" type="veh_passenger" depart="64.24" departLane="best" from="151642144" to="-833489534#5"/>
    <trip id="veh41" type="veh_passenger" depart="65.84" departLane="best" from="9835059#4" to="210585688#3"/>
    <trip id="veh42" type="veh_passenger" depart="67.45" departLane="best" from="-179043327#4" to="29993730#2"/>
    <trip id="veh44" type="veh_passenger" depart="70.66" departLane="best" from="9835036#8" to="229118644#1"/>
    <trip id="veh45" type="veh_passenger" depart="72.27" departLane="best" from="9779641#2" to="764142046#2"/>
    <trip id="veh46" type="veh_passenger" depart="73.87" departLane="best" from="-109043727#0" to="520319274#5"/>
    <trip id="veh47" type="veh_passenger" depart="75.48" departLane="best" from="43943994#0" to="27458387#0"/>
    <trip id="veh48" type="veh_passenger" depart="77.08" departLane="best" from="10370006#3" to="29999344#1"/>
    <trip id="veh49" type="veh_passenger" depart="78.69" departLane="best" from="-179043328#2" to="163927003#1"/>
    <trip id="veh50" type="veh_passenger" depart="80.30" departLane="best" from="171988536#1" to="9041061#4"/>
    <trip id="veh51" type="veh_passenger" depart="81.90" departLane="best" from="807516770#1" to="108144708#3"/>
    <trip id="veh52" type="veh_passenger" depart="83.51" departLane="best" from="203928453#0" to="-551968647#3"/>
    <trip id="veh54" type="veh_passenger" depart="86.72" departLane="best" from="120196992#5" to="29999176#2"/>
    <trip id="veh55" type="veh_passenger" depart="88.33" departLane="best" from="29500670#9" to="-331974632#1"/>
    <trip id="veh56" type="veh_passenger" depart="89.93" departLane="best" from="625511621" to="27923287#0"/>
    <trip id="veh57" type="veh_passenger" depart="91.54" departLane="best" departSpeed="max" from="628553435#0" to="24450624#5"/>
    <trip id="veh58" type="veh_passenger" depart="93.14" departLane="best" from="-10152476#2" to="124389620#0"/>
    <trip id="veh59" type="veh_passenger" depart="94.75" departLane="best" departSpeed="max" from="-120530042#1" to="832176509#3"/>
    <trip id="veh60" type="veh_passenger" depart="96.36" departLane="best" from="808400732#0" to="67165142#1"/>
    <trip id="veh61" type="veh_passenger" depart="97.96" departLane="best" from="120579107#1" to="-146496313#6"/>
    <trip id="veh62" type="veh_passenger" depart="99.57" departLane="best" from="807516829#6" to="8617529#2"/>
    <trip id="veh63" type="veh_passenger" depart="101.17" departLane="best" departSpeed="max" from="-170307520#3" to="179251420#4"/>
    <trip id="veh64" type="veh_passenger" depart="102.78" departLane="best" departSpeed="max" from="-146496320#1" to="621815543"/>
    <trip id="veh65" type="veh_passenger" depart="104.38" departLane="best" departSpeed="max" from="628243087" to="-29200688#3"/>
    <trip id="veh66" type="veh_passenger" depart="105.99" departLane="best" from="179043324#2" to="28087950#1"/>
    <trip id="veh67" type="veh_passenger" depart="107.60" departLane="best" from="10370002#5" to="806646621"/>
    <trip id="veh68" type="veh_passenger" depart="109.20" departLane="best" from="158065203" to="-83148447#1"/>
    <trip id="veh69" type="veh_passenger" depart="110.81" departLane="best" from="27458387#2" to="52935154#0"/>
    <trip id="veh70" type="veh_passenger" depart="112.41" departLane="best" departSpeed="max" from="-642919997" to="120718412#7"/>
    <trip id="veh71" type="veh_passenger" depart="114.02" departLane="best" from="9835036#6" to="399291229#0"/>
    <trip id="veh72" type="veh_passenger" depart="115.63" departLane="best" from="16735952#2" to="211680457#0"/>
    <trip id="veh73" type="veh_passenger" depart="117.23" departLane="best" from="124386064#3" to="29500477#4"/>
    <trip id="veh74" type="veh_passenger" depart="118.84" departLane="best" departSpeed="max" from="-822485201#1" to="-9041061#1"/>
    <trip id="veh75" type="veh_passenger" depart="120.44" departLane="best" departSpeed="max" from="-819823167#1" to="815653312"/>
    <trip id="veh76" type="veh_passenger" depart="122.05" departLane="best" from="764142050#2" to="-158061265#4"/>
    <trip id="veh77" type="veh_passenger" depart="123.66" departLane="best" from="-832176600#2" to="43787289#15"/>
    <trip id="veh78" type="veh_passenger" depart="125.26" departLane="best" from="-808400732#4" to="-29200769#1"/>
    <trip id="veh79" type="veh_passenger" depart="126.87" departLane="best" from="833778152#1" to="29047989#1"/>
    <trip id="veh80" type="veh_passenger" depart="128.47" departLane="best" from="179043320#1" to="636799439#2"/>
    <trip id="veh81" type="veh_passenger" depart="130.08" departLane="best" from="-179037246#4" to="163926997#0"/>
    <trip id="veh83" type="veh_passenger" depart="133.29" departLane="best" from="520811805#0" to="43787315#3"/>
    <trip id="veh84" type="veh_passenger" depart="134.90" departLane="best" from="97810659#2" to="-179043327#3"/>
    <trip id="veh85" type="veh_passenger" depart="136.50" departLane="best" from="156217856" to="138099507#3"/>
    <trip id="veh86" type="veh_passenger" depart="138.11" departLane="best" from="765037409#3" to="10370006#6"/>
    <trip id="veh88" type="veh_passenger" depart="141.32" departLane="best" from="-97810614#0" to="830375129#3"/>
    <trip id="veh89" type="veh_passenger" depart="142.93" departLane="best" from="170308027" to="764142046#4"/>
    <trip id="veh91" type="veh_passenger" depart="146.14" departLane="best" from="9835085#6" to="673659285"/>
    <trip id="veh92" type="veh_passenger" depart="147.74" departLane="best" from="9777927#5" to="832176498#1"/>
    <trip id="veh93" type="veh_passenger" depart="149.35" departLane="best" from="764137061#6" to="-467786352"/>
    <trip id="veh94" type="veh_passenger" depart="150.96" departLane="best" departSpeed="max" from="179256125#0" to="-832176509#2"/>
    <trip id="veh95" type="veh_passenger" depart="152.56" departLane="best" from="155252324#0" to="-146496319#1"/>
    <trip id="veh96" type="veh_passenger" depart="154.17" departLane="best" from="146459516#7" to="97810659#4"/>
    <trip id="veh97" type="veh_passenger" depart="155.77" departLane="best" from="10370002#6" to="636799439#0"/>
    <trip id="veh98" type="veh_passenger" depart="157.38" departLane="best" from="172078409" to="158065229"/>
    <trip id="veh99" type="veh_passenger" depart="158.99" departLane="best" departSpeed="max" from="906785779" to="9835036#7"/>
    <trip id="veh100" type="veh_passenger" depart="160.59" departLane="best" from="28087950#3" to="509277141#7"/>
    <trip id="veh101" type="veh_passenger" depart="162.20" departLane="best" departSpeed="max" from="-29993730#6" to="120708784#3"/>
    <trip id="veh102" type="veh_passenger" depart="163.80" departLane="best" from="9777927#4" to="29048200#0"/>
    <trip id="veh103" type="veh_passenger" depart="165.41" departLane="best" from="27923289#1" to="551968647#4"/>
    <trip id="veh105" type="veh_passenger" depart="168.62" departLane="best" from="210256924#0" to="764137061#8"/>
    <trip id="veh106" type="veh_passenger" depart="170.23" departLane="best" from="-29993748#18" to="906785781"/>
    <trip id="veh107" type="veh_passenger" depart="171.83" departLane="best" from="-158061265#4" to="-643068342#1"/>
    <trip id="veh108" type="veh_passenger" depart="173.44" departLane="best" from="29500477#7" to="43835914#4"/>
    <trip id="veh109" type="veh_passenger" depart="175.05" departLane="best" departSpeed="max" from="-832176509#3" to="-28087950#6"/>
    <trip id="veh110" type="veh_passenger" depart="176.65" departLane="best" from="814532773#2" to="10370002#7"/>
    <trip id="veh111" type="veh_passenger" depart="178.26" departLane="best" from="29500477#6" to="29501281#0"/>
    <trip id="veh112" type="veh_passenger" depart="179.86" departLane="best" from="225113275#3" to="833489534#0"/>
    <trip id="veh113" type="veh_passenger" depart="181.47" departLane="best" from="-67165144#6" to="509277141#0"/>
    <trip id="veh114" type="veh_passenger" depart="183.07" departLane="best" from="-833489534#0" to="156217865#1"/>
    <trip id="veh115" type="veh_passenger" depart="184.68" departLane="best" from="43787288#4" to="120708843#1"/>
    <trip id="veh116" type="veh_passenger" depart="186.29" departLane="best" from="120708843#8" to="560126981#1"/>
    <trip id="veh117" type="veh_passenger" depart="187.89" departLane="best" from="-147897235#1" to="179037235#1"/>
    <trip id="veh118" type="veh_passenger" depart="189.50" departLane="best" departSpeed="max" from="-147903891#1" to="-832176509#1"/>
    <trip id="veh119" type="veh_passenger" depart="191.10" departLane="best" from="10370002#6" to="832176599#3"/>
    <trip id="veh120" type="veh_passenger" depart="192.71" departLane="best" from="808400775#1" to="807516829#0"/>
    <trip id="veh121" type="veh_passenger" depart="194.32" departLane="best" from="145556697#4" to="-43334677#0"/>
    <trip id="veh122" type="veh_passenger" depart="195.92" departLane="best" from="673659286" to="45730002#1"/>
    <trip id="veh123" type="veh_passenger" depart="197.53" departLane="best" from="29500695#5" to="97810659#8"/>
    <trip id="veh124" type="veh_passenger" depart="199.13" departLane="best" from="399291229#0" to="-104739866#2"/>
    <trip id="veh125" type="veh_passenger" depart="200.74" departLane="best" from="666985035#2" to="120708839#2"/>
    <trip id="veh126" type="veh_passenger" depart="202.35" departLane="best" from="43786235#3" to="833778152#5"/>
    <trip id="veh127" type="veh_passenger" depart="203.95" departLane="best" from="-28100488#0" to="-28087950#0"/>
    <trip id="veh128" type="veh_passenger" depart="205.56" departLane="best" from="-179043324#3" to="28087950#5"/>
    <trip id="veh129" type="veh_passenger" depart="207.16" departLane="best" from="467786364" to="-815653310#4"/>
    <trip id="veh130" type="veh_passenger" depart="208.77" departLane="best" from="760165170" to="-179043317#11"/>
    <trip id="veh132" type="veh_passenger" depart="211.98" departLane="best" from="-10370002#4" to="628544545#2"/>
    <trip id="veh134" type="veh_passenger" depart="215.19" departLane="best" from="537273267" to="28087950#2"/>
    <trip id="veh135" type="veh_passenger" depart="216.80" departLane="best" from="-156321379#1" to="808400732#3"/>
    <trip id="veh136" type="veh_passenger" depart="218.40" departLane="best" from="815653312" to="27923306#3"/>
    <trip id="veh137" type="veh_passenger" depart="220.01" departLane="best" from="673664913" to="29200688#5"/>
    <trip id="veh138" type="veh_passenger" depart="221.62" departLane="best" from="-29501266#5" to="-28945213#6"/>
    <trip id="veh139" type="veh_passenger" depart="223.22" departLane="best" from="120579130#1" to="815653261#3"/>
    <trip id="veh140" type="veh_passenger" depart="224.83" departLane="best" from="642650650" to="764142046#2"/>
    <trip id="veh141" type="veh_passenger" depart="226.43" departLane="best" from="815653279#2" to="-823818142#0"/>
    <trip id="veh142" type="veh_passenger" depart="228.04" departLane="best" from="-9779641#2" to="-179043329#5"/>
    <trip id="veh143" type="veh_passenger" depart="229.65" departLane="best" from="636667679#1" to="808400775#1"/>
    <trip id="veh144" type="veh_passenger" depart="231.25" departLane="best" from="156217868#5" to="29501282#2"/>
    <trip id="veh145" type="veh_passenger" depart="232.86" departLane="best" from="779568936#3" to="97810616"/>
    <trip id="veh146" type="veh_passenger" depart="234.46" departLane="best" from="666985005" to="807516829#6"/>
    <trip id="veh147" type="veh_passenger" depart="236.07" departLane="best" from="-120708835#0" to="545119341"/>
    <trip id="veh148" type="veh_passenger" depart="237.68" departLane="best" from="642927417#0" to="764142048#2"/>
    <trip id="veh149" type="veh_passenger" depart="239.28" departLane="best" from="666985005" to="109043727#3"/>
    <trip id="veh150" type="veh_passenger" depart="240.89" departLane="best" departSpeed="max" from="640643547#0" to="-182324532#1"/>
    <trip id="veh151" type="veh_passenger" depart="242.49" departLane="best" from="806646622#3" to="764142042#1"/>
    <trip id="veh152" type="veh_passenger" depart="244.10" departLane="best" from="-815653310#5" to="666985019"/>
    <trip id="veh153" type="veh_passenger" depart="245.71" departLane="best" from="179037246#5" to="120717748"/>
    <trip id="veh154" type="veh_passenger" depart="247.31" departLane="best" from="642650640" to="-9777927#6"/>
    <trip id="veh155" type="veh_passenger" depart="248.92" departLane="best" from="-120708784#3" to="-808400732#4"/>
    <trip id="veh156" type="veh_passenger" depart="250.52" departLane="best" departSpeed="max" from="124338130#0" to="764142049#1"/>
    <trip id="veh158" type="veh_passenger" depart="253.74" departLane="best" from="29999342#2" to="156217868#2"/>
    <trip id="veh159" type="veh_passenger" depart="255.34" departLane="best" from="97810642" to="27458386"/>
    <trip id="veh161" type="veh_passenger" depart="258.55" departLane="best" from="9779640#3" to="-551968647#3"/>
    <trip id="veh162" type="veh_passenger" depart="260.16" departLane="best" from="9776691#5" to="109043726"/>
    <trip id="veh163" type="veh_passenger" depart="261.76" departLane="best" from="-179043324#7" to="163927003#1"/>
    <trip id="veh164" type="veh_passenger" depart="263.37" departLane="best" from="29500670#20" to="210585701#1"/>
    <trip id="veh165" type="veh_passenger" depart="264.98" departLane="best" from="146496319#4" to="29048124#2"/>
    <trip id="veh166" type="veh_passenger" depart="266.58" departLane="best" from="-9835085#5" to="467786363#0"/>
    <trip id="veh167" type="veh_passenger" depart="268.19" departLane="best" from="-10152476#4" to="83148446#2"/>
    <trip id="veh168" type="veh_passenger" depart="269.79" departLane="best" from="27458387#0" to="520319274#2"/>
    <trip id="veh169" type="veh_passenger" depart="271.40" departLane="best" from="545119340" to="43787289#7"/>
    <trip id="veh170" type="veh_passenger" depart="273.01" departLane="best" from="145528115#1" to="-158061265#11"/>
    <trip id="veh171" type="veh_passenger" depart="274.61" departLane="best" from="43786235#5" to="128913064#2"/>
    <trip id="veh172" type="veh_passenger" depart="276.22" departLane="best" from="120708843#1" to="760165167"/>
    <trip id="veh173" type="veh_passenger" depart="277.82" departLane="best" from="506016308#1" to="120708843#2"/>
    <trip id="veh174" type="veh_passenger" depart="279.43" departLane="best" from="120579147" to="158061225"/>
    <trip id="veh175" type="veh_passenger" depart="281.04" departLane="best" from="155252324#2" to="120708784#0"/>
    <trip id="veh176" type="veh_passenger" depart="282.64" departLane="best" from="-27923295#2" to="158065205#3"/>
    <trip id="veh177" type="veh_passenger" depart="284.25" departLane="best" departSpeed="max" from="834913823#0" to="43943994#0"/>
    <trip id="veh178" type="veh_passenger" depart="285.85" departLane="best" from="815653310#8" to="29501177#0"/>
    <trip id="veh180" type="veh_passenger" depart="289.07" departLane="best" from="-10152476#1" to="120530026#1"/>
    <trip id="veh181" type="veh_passenger" depart="290.67" departLane="best" from="163926996" to="29048200#1"/>
    <trip id="veh182" type="veh_passenger" depart="292.28" departLane="best" departSpeed="max" from="399291230#0" to="179037254#0"/>
    <trip id="veh183" type="veh_passenger" depart="293.88" departLane="best" from="170308026#0" to="-832176509#2"/>
    <trip id="veh184" type="veh_passenger" depart="295.49" departLane="best" from="179043320#2" to="815653310#0"/>
    <trip id="veh185" type="veh_passenger" depart="297.09" departLane="best" from="642650650" to="-52936664#3"/>
    <trip id="veh186" type="veh_passenger" depart="298.70" departLane="best" departSpeed="max" from="-170307520#3" to="211680454#7"/>
    <trip id="veh187" type="veh_passenger" depart="300.31" departLane="best" from="29993748#18" to="130393432#1"/>
    <trip id="veh188" type="veh_passenger" depart="301.91" departLane="best" from="666985038#2" to="560126979#2"/>
    <trip id="veh189" type="veh_passenger" depart="303.52" departLane="best" from="43787289#12" to="-9776691#6"/>
    <trip id="veh190" type="veh_passenger" depart="305.12" departLane="best" from="-642919994#1" to="-120717789#2"/>
    <trip id="veh191" type="veh_passenger" depart="306.73" departLane="best" from="-9776691#4" to="179043321#2"/>
    <trip id="veh192" type="veh_passenger" depart="308.34" departLane="best" from="764137061#8" to="-170307520#1"/>
    <trip id="veh193" type="veh_passenger" depart="309.94" departLane="best" from="158061225" to="29993748#0"/>
    <trip id="veh194" type="veh_passenger" depart="311.55" departLane="best" from="179256129#5" to="10370002#5"/>
    <trip id="veh195" type="veh_passenger" depart="313.15" departLane="best" departSpeed="max" from="399291230#0" to="-10370006#3"/>
    <trip id="veh196" type="veh_passenger" depart="314.76" departLane="best" from="560126979#1" to="628544543#0"/>
    <trip id="veh197" type="veh_passenger" depart="316.37" departLane="best" from="-179043324#2" to="161793150"/>
    <trip id="veh198" type="veh_passenger" depart="317.97" departLane="best" departSpeed="max" from="-45730002#1" to="9041064#4"/>
    <trip id="veh199" type="veh_passenger" depart="319.58" departLane="best" from="211680456" to="-145556697#0"/>
    <trip id="veh200" type="veh_passenger" depart="321.18" departLane="best" from="-9779641#1" to="760165168"/>
    <trip id="veh201" type="veh_passenger" depart="322.79" departLane="best" from="178756099#2" to="642927416#2"/>
    <trip id="veh202" type="veh_passenger" depart="324.40" departLane="best" from="43786869#3" to="9835015#0"/>
    <trip id="veh203" type="veh_passenger" depart="326.00" departLane="best" from="29500548#1" to="8617529#8"/>
    <trip id="veh204" type="veh_passenger" depart="327.61" departLane="best" departSpeed="max" from="814532778#0" to="29501089#0"/>
    <trip id="veh205" type="veh_passenger" depart="329.21" departLane="best" from="506016308#0" to="210256932#0"/>
    <trip id="veh206" type="veh_passenger" depart="330.82" departLane="best" from="67165144#2" to="27923310#1"/>
    <trip id="veh207" type="veh_passenger" depart="332.43" departLane="best" from="815653261#2" to="547315452#1"/>
    <trip id="veh208" type="veh_passenger" depart="334.03" departLane="best" from="179043324#0" to="104739910"/>
    <trip id="veh209" type="veh_passenger" depart="335.64" departLane="best" from="-9777927#0" to="29999162#0"/>
    <trip id="veh210" type="veh_passenger" depart="337.24" departLane="best" departSpeed="max" from="628243087" to="225113275#1"/>
    <trip id="veh211" type="veh_passenger" depart="338.85" departLane="best" from="29993719#1" to="120196979#3"/>
    <trip id="veh212" type="veh_passenger" depart="340.45" departLane="best" from="104739848#0" to="124340647#2"/>
    <trip id="veh213" type="veh_passenger" depart="342.06" departLane="best" from="27458387#5" to="-29501266#2"/>
    <trip id="veh215" type="veh_passenger" depart="345.27" departLane="best" from="156217870#1" to="27923295#2"/>
    <trip id="veh216" type="veh_passenger" depart="346.88" departLane="best" from="158061235" to="-819188373#3"/>
    <trip id="veh217" type="veh_passenger" depart="348.48" departLane="best" from="158061280#1" to="815653310#9"/>
    <trip id="veh218" type="veh_passenger" depart="350.09" departLane="best" from="29048200#3" to="45726940#1"/>
    <trip id="veh219" type="veh_passenger" depart="351.70" departLane="best" from="764142046#8" to="625511621"/>
    <trip id="veh220" type="veh_passenger" depart="353.30" departLane="best" from="146496312#1" to="-10370006#4"/>
    <trip id="veh222" type="veh_passenger" depart="356.51" departLane="best" from="764142041#0" to="9041061#2"/>
    <trip id="veh223" type="veh_passenger" depart="358.12" departLane="best" from="158061274" to="551968647#3"/>
    <trip id="veh224" type="veh_passenger" depart="359.73" departLane="best" from="27923306#1" to="29500670#2"/>
    <trip id="veh225" type="veh_passenger" depart="361.33" departLane="best" from="-815653310#1" to="-833489534#5"/>
    <trip id="veh226" type="veh_passenger" depart="362.94" departLane="best" from="163927006" to="-124338156#0"/>
    <trip id="veh228" type="veh_passenger" depart="366.15" departLane="best" from="179043317#0" to="-28945213#6"/>
    <trip id="veh229" type="veh_passenger" depart="367.76" departLane="best" from="29501266#2" to="-124338130#0"/>
    <trip id="veh230" type="veh_passenger" depart="369.36" departLane="best" from="147897235#1" to="28238908#1"/>
    <trip id="veh231" type="veh_passenger" depart="370.97" departLane="best" from="-120708843#1" to="316341981#3"/>
    <trip id="veh232" type="veh_passenger" depart="372.57" departLane="best" from="-28211753#6" to="179037249#0"/>
    <trip id="veh233" type="veh_passenger" depart="374.18" departLane="best" departSpeed="max" from="-138099507#4" to="146609454#1"/>
    <trip id="veh234" type="veh_passenger" depart="375.78" departLane="best" from="-764142048#3" to="128913059#3"/>
    <trip id="veh235" type="veh_passenger" depart="377.39" departLane="best" from="560126981#0" to="67165142#1"/>
    <trip id="veh237" type="veh_passenger" depart="380.60" departLane="best" departSpeed="max" from="-120530042#1" to="27923287#0"/>
    <trip id="veh238" type="veh_passenger" depart="382.21" departLane="best" from="9838451" to="145524419#0"/>
    <trip id="veh239" type="veh_passenger" depart="383.81" departLane="best" from="331975572#2" to="636667696"/>
    <trip id="veh240" type="veh_passenger" depart="385.42" departLane="best" from="375423736#0" to="569687472"/>
    <trip id="veh241" type="veh_passenger" depart="387.03" departLane="best" departSpeed="max" from="9041049#0" to="-814928846#0"/>
    <trip id="veh242" type="veh_passenger" depart="388.63" departLane="best" departSpeed="max" from="-120530042#1" to="-331974632#0"/>
    <trip id="veh243" type="veh_passenger" depart="390.24" departLane="best" from="-27458387#5" to="43787289#3"/>
    <trip id="veh244" type="veh_passenger" depart="391.84" departLane="best" from="28100446#2" to="-833489534#1"/>
    <trip id="veh245" type="veh_passenger" depart="393.45" departLane="best" departSpeed="max" from="45702373#0" to="626351976"/>
    <trip id="veh246" type="veh_passenger" depart="395.06" departLane="best" from="-43684444#2" to="29500695#0"/>
    <trip id="veh247" type="veh_passenger" depart="396.66" departLane="best" from="-179043324#6" to="-123894777#3"/>
    <trip id="veh248" type="veh_passenger" depart="398.27" departLane="best" from="120708835#1" to="43943994#0"/>
    <trip id="veh249" type="veh_passenger" depart="399.87" departLane="best" departSpeed="max" from="906785779" to="156217865#1"/>
    <trip id="veh250" type="veh_passenger" depart="401.48" departLane="best" departSpeed="max" from="467786352" to="-170308026#0"/>
    <trip id="veh251" type="veh_passenger" depart="403.09" departLane="best" from="45562887#1" to="29993730#1"/>
    <trip id="veh252" type="veh_passenger" depart="404.69" departLane="best" from="-179043317#1" to="628549277#6"/>
    <trip id="veh253" type="veh_passenger" depart="406.30" departLane="best" from="764142039#0" to="29500645#8"/>
    <trip id="veh254" type="veh_passenger" depart="407.90" departLane="best" from="-203928453#7" to="97810659#2"/>
    <trip id="veh255" type="veh_passenger" depart="409.51" departLane="best" from="636667683#2" to="145515494#1"/>
    <trip id="veh256" type="veh_passenger" depart="411.11" departLane="best" from="161371871" to="146496316"/>
    <trip id="veh257" type="veh_passenger" depart="412.72" departLane="best" from="210256941#0" to="138099507#4"/>
    <trip id="veh258" type="veh_passenger" depart="414.33" departLane="best" from="-179043317#7" to="906785781"/>
    <trip id="veh259" type="veh_passenger" depart="415.93" departLane="best" from="29993782#10" to="670556844"/>
    <trip id="veh260" type="veh_passenger" depart="417.54" departLane="best" from="520813758#7" to="9776691#6"/>
    <trip id="veh261" type="veh_passenger" depart="419.14" departLane="best" from="104739841#3" to="644731754#2"/>
    <trip id="veh262" type="veh_passenger" depart="420.75" departLane="best" from="27458386" to="179043329#7"/>
    <trip id="veh263" type="veh_passenger" depart="422.36" departLane="best" from="163927006" to="52936664#9"/>