<?xml version="1.0" encoding="UTF-8"?>

<!-- generated on 2021-10-31 22:32:53 by Eclipse SUMO duarouter Version 1.10.0
<configuration xmlns:xsi="http://www.w3.org/2001/XMLSchema-instance" xsi:noNamespaceSchemaLocation="http://sumo.dlr.de/xsd/duarouterConfiguration.xsd">

    <input>
        <net-file value="C:\Users\juane\Sumo\2021-10-31-22-32-17\osm.net.xml"/>
        <route-files value="C:\Users\juane\Sumo\2021-10-31-22-32-17\osm.passenger.trips.xml"/>
    </input>

    <output>
        <output-file value="C:\Users\juane\Sumo\2021-10-31-22-32-17\osm.passenger.trips.xml.tmp"/>
        <write-trips value="true"/>
    </output>

    <time>
        <begin value="0"/>
        <end value="3600"/>
    </time>

    <report>
        <no-warnings value="true"/>
        <ignore-errors value="true"/>
        <no-step-log value="true"/>
    </report>

</configuration>
-->

<routes xmlns:xsi="http://www.w3.org/2001/XMLSchema-instance" xsi:noNamespaceSchemaLocation="http://sumo.dlr.de/xsd/routes_file.xsd">
    <vType id="veh_passenger" vClass="passenger"/>
    <trip id="veh0" type="veh_passenger" depart="0.00" departLane="best" from="31321098#1" to="-19747865"/>
    <trip id="veh1" type="veh_passenger" depart="2.58" departLane="best" from="35784930#3" to="35783393"/>
    <trip id="veh3" type="veh_passenger" depart="7.74" departLane="best" from="120608119" to="28370590"/>
    <trip id="veh4" type="veh_passenger" depart="10.31" departLane="best" departSpeed="max" from="-19802260#1" to="173076714#3"/>
    <trip id="veh5" type="veh_passenger" depart="12.89" departLane="best" departSpeed="max" from="31321736#0" to="309712271#0"/>
    <trip id="veh6" type="veh_passenger" depart="15.47" departLane="best" departSpeed="max" from="122269844" to="31648543#3"/>
    <trip id="veh7" type="veh_passenger" depart="18.05" departLane="best" from="37588747#0" to="-113880679#1"/>
    <trip id="veh8" type="veh_passenger" depart="20.63" departLane="best" from="37569022#2" to="366110885"/>
    <trip id="veh9" type="veh_passenger" depart="23.21" departLane="best" from="19804797#1" to="-780953379"/>
    <trip id="veh10" type="veh_passenger" depart="25.78" departLane="best" from="786019230" to="22295882#2"/>
    <trip id="veh11" type="veh_passenger" depart="28.36" departLane="best" departSpeed="max" from="-335221276#4" to="-37375823"/>
    <trip id="veh13" type="veh_passenger" depart="33.52" departLane="best" from="37569559#1" to="37375825#1"/>
    <trip id="veh14" type="veh_passenger" depart="36.10" departLane="best" from="28115745#0" to="890744301#0"/>
    <trip id="veh15" type="veh_passenger" depart="38.68" departLane="best" from="22744025#5" to="31236760#0"/>
    <trip id="veh17" type="veh_passenger" depart="43.83" departLane="best" from="332019207#4" to="-237277458"/>
    <trip id="veh18" type="veh_passenger" depart="46.41" departLane="best" from="140216572" to="19804752#1"/>
    <trip id="veh19" type="veh_passenger" depart="48.99" departLane="best" from="-329159952#0" to="19124191#0"/>
    <trip id="veh20" type="veh_passenger" depart="51.57" departLane="best" departSpeed="max" from="-35783393" to="19790070#1"/>
    <trip id="veh24" type="veh_passenger" depart="61.88" departLane="best" departSpeed="max" from="31321736#0" to="331354675"/>
    <trip id="veh25" type="veh_passenger" depart="64.46" departLane="best" from="-70083833#0" to="373489785#0"/>
    <trip id="veh26" type="veh_passenger" depart="67.04" departLane="best" departSpeed="max" from="-67377790" to="23646775#2"/>
    <trip id="veh27" type="veh_passenger" depart="69.62" departLane="best" from="892407214" to="332019208"/>
    <trip id="veh28" type="veh_passenger" depart="72.19" departLane="best" departSpeed="max" from="28604425#0" to="35784930#3"/>
    <trip id="veh29" type="veh_passenger" depart="74.77" departLane="best" from="49060172#1" to="422173206"/>
    <trip id="veh30" type="veh_passenger" depart="77.35" departLane="best" from="160118790#4" to="-206080260#0"/>
    <trip id="veh31" type="veh_passenger" depart="79.93" departLane="best" departSpeed="max" from="19802249" to="197717491"/>
    <trip id="veh33" type="veh_passenger" depart="85.09" departLane="best" from="56767120#1" to="19853987#0"/>
    <trip id="veh34" type="veh_passenger" depart="87.66" departLane="best" from="31648543#4" to="237519742#1"/>
    <trip id="veh36" type="veh_passenger" depart="92.82" departLane="best" from="19124180#2" to="19210168#4"/>
    <trip id="veh37" type="veh_passenger" depart="95.40" departLane="best" from="294382770" to="19748204#0"/>
    <trip id="veh39" type="veh_passenger" depart="100.56" departLane="best" departSpeed="max" from="23646773#0" to="19095802#1"/>
    <trip id="veh40" type="veh_passenger" depart="103.13" departLane="best" from="929822151#0" to="28470418"/>
    <trip id="veh41" type="veh_passenger" depart="105.71" departLane="best" departSpeed="max" from="-335221276#4" to="-237277459"/>
    <trip id="veh42" type="veh_passenger" depart="108.29" departLane="best" departSpeed="max" from="-367117200#1" to="332019191#1"/>
    <trip id="veh43" type="veh_passenger" depart="110.87" departLane="best" from="37532037#0" to="238832251#0"/>
    <trip id="veh44" type="veh_passenger" depart="113.45" departLane="best" from="-28117656#3" to="23646776#1"/>
    <trip id="veh46" type="veh_passenger" depart="118.60" departLane="best" from="814351068#1" to="58993470#0"/>
    <trip id="veh47" type="veh_passenger" depart="121.18" departLane="best" departSpeed="max" from="-18979198" to="367126991"/>
    <trip id="veh49" type="veh_passenger" depart="126.34" departLane="best" from="19124185#2" to="332019211#0"/>
    <trip id="veh52" type="veh_passenger" depart="134.07" departLane="best" from="56767120#0" to="19748204#0"/>
    <trip id="veh53" type="veh_passenger" depart="136.65" departLane="best" from="26707226#0" to="122269872#0"/>
    <trip id="veh55" type="veh_passenger" depart="141.81" departLane="best" from="19748204#0" to="332019207#4"/>
    <trip id="veh56" type="veh_passenger" depart="144.39" departLane="best" from="31283635#0" to="-70083833#0"/>
    <trip id="veh59" type="veh_passenger" depart="152.12" departLane="best" from="-19747865" to="70083833#0"/>
    <trip id="veh60" type="veh_passenger" depart="154.70" departLane="best" from="56767126#2" to="510585239"/>
    <trip id="veh64" type="veh_passenger" depart="165.02" departLane="best" departSpeed="max" from="-29550104" to="37569562#0"/>
    <trip id="veh66" type="veh_passenger" depart="170.17" departLane="best" from="239209578#0" to="310425662#1"/>
    <trip id="veh68" type="veh_passenger" depart="175.33" departLane="best" from="237277458" to="18978590#1"/>
    <trip id="veh69" type="veh_passenger" depart="177.91" departLane="best" from="28116142#1" to="37376927"/>
    <trip id="veh70" type="veh_passenger" depart="180.49" departLane="best" from="113880131#0" to="19804800"/>
    <trip id="veh71" type="veh_passenger" depart="183.06" departLane="best" from="894268679#0" to="335221249#0"/>
    <trip id="veh73" type="veh_passenger" depart="188.22" departLane="best" departSpeed="max" from="-37588748" to="19124160#1"/>
    <trip id="veh74" type="veh_passenger" depart="190.80" departLane="best" departSpeed="max" from="19804786" to="31648543#2"/>
    <trip id="veh77" type="veh_passenger" depart="198.53" departLane="best" from="151278398" to="67332820#4"/>
    <trip id="veh78" type="veh_passenger" depart="201.11" departLane="best" from="508362482" to="-31290865#1"/>
    <trip id="veh79" type="veh_passenger" depart="203.69" departLane="best" from="173076714#1" to="340055010"/>
    <trip id="veh83" type="veh_passenger" depart="214.00" departLane="best" from="-338940730#2" to="239210559#0"/>
    <trip id="veh84" type="veh_passenger" depart="216.58" departLane="best" from="237277458" to="28089431#1"/>
    <trip id="veh85" type="veh_passenger" depart="219.16" departLane="best" from="891841345#0" to="-37375824"/>
    <trip id="veh86" type="veh_passenger" depart="221.74" departLane="best" departSpeed="max" from="23646773#0" to="22295882#2"/>
    <trip id="veh87" type="veh_passenger" depart="224.32" departLane="best" from="508362483#2" to="19210171#1"/>
    <trip id="veh88" type="veh_passenger" depart="226.90" departLane="best" from="-814351068#6" to="261491872"/>
    <trip id="veh89" type="veh_passenger" depart="229.47" departLane="best" from="237277456" to="19802240#0"/>
    <trip id="veh90" type="veh_passenger" depart="232.05" departLane="best" from="18978590#4" to="67462545"/>
    <trip id="veh91" type="veh_passenger" depart="234.63" departLane="best" departSpeed="max" from="238327266" to="58993470#0"/>
    <trip id="veh92" type="veh_passenger" depart="237.21" departLane="best" from="28339310#1" to="-260077619#0"/>
    <trip id="veh93" type="veh_passenger" depart="239.79" departLane="best" from="976693852" to="510585239"/>
    <trip id="veh94" type="veh_passenger" depart="242.37" departLane="best" departSpeed="max" from="807531845#0" to="67661820"/>
    <trip id="veh95" type="veh_passenger" depart="244.94" departLane="best" from="497852757#0" to="113880131#3"/>
    <trip id="veh96" type="veh_passenger" depart="247.52" departLane="best" from="246437529" to="18978957#0"/>
    <trip id="veh97" type="veh_passenger" depart="250.10" departLane="best" departSpeed="max" from="23646773#0" to="-28117654"/>
    <trip id="veh101" type="veh_passenger" depart="260.41" departLane="best" from="786019230" to="929822151#1"/>
    <trip id="veh102" type="veh_passenger" depart="262.99" departLane="best" departSpeed="max" from="28604204#0" to="367122294"/>
    <trip id="veh103" type="veh_passenger" depart="265.57" departLane="best" from="-639625555#0" to="19804762#1"/>
    <trip id="veh104" type="veh_passenger" depart="268.15" departLane="best" departSpeed="max" from="807531845#0" to="31321183#0"/>
    <trip id="veh105" type="veh_passenger" depart="270.73" departLane="best" from="28117351#0" to="37566262"/>
    <trip id="veh106" type="veh_passenger" depart="273.31" departLane="best" departSpeed="max" from="-28081223" to="31321682"/>
    <trip id="veh107" type="veh_passenger" depart="275.88" departLane="best" from="27954450" to="56767120#0"/>
    <trip id="veh108" type="veh_passenger" depart="278.46" departLane="best" from="-67332803" to="786019235#2"/>
    <trip id="veh109" type="veh_passenger" depart="281.04" departLane="best" from="-329159952#0" to="142501836"/>
    <trip id="veh110" type="veh_passenger" depart="283.62" departLane="best" from="309712271#1" to="35783393"/>
    <trip id="veh111" type="veh_passenger" depart="286.20" departLane="best" from="163397792" to="-510585240"/>
    <trip id="veh112" type="veh_passenger" depart="288.78" departLane="best" from="58993471#0" to="19210168#3"/>
    <trip id="veh113" type="veh_passenger" depart="291.35" departLane="best" from="309712271#0" to="331354693#2"/>
    <trip id="veh114" type="veh_passenger" depart="293.93" departLane="best" from="23646779#4" to="31321653#2"/>
    <trip id="veh115" type="veh_passenger" depart="296.51" departLane="best" from="113880678#0" to="367117203#1"/>
    <trip id="veh116" type="veh_passenger" depart="299.09" departLane="best" departSpeed="max" from="18545389#0" to="237519742#1"/>
    <trip id="veh117" type="veh_passenger" depart="301.67" departLane="best" from="331354673#4" to="19804767#2"/>
    <trip id="veh118" type="veh_passenger" depart="304.25" departLane="best" departSpeed="max" from="19802249" to="37567711#3"/>
    <trip id="veh119" type="veh_passenger" depart="306.82" departLane="best" from="-31284579#1" to="28026513"/>
    <trip id="veh120" type="veh_passenger" depart="309.40" departLane="best" from="929822151#1" to="929822151#1"/>
    <trip id="veh121" type="veh_passenger" depart="311.98" departLane="best" from="-31286793" to="18978883#0"/>
    <trip id="veh123" type="veh_passenger" depart="317.14" departLane="best" from="57775983#2" to="65738391"/>
    <trip id="veh126" type="veh_passenger" depart="324.87" departLane="best" from="31283833" to="892407215#1"/>
    <trip id="veh127" type="veh_passenger" depart="327.45" departLane="best" from="31648543#2" to="-140216572"/>
    <trip id="veh128" type="veh_passenger" depart="330.03" departLane="best" from="382462792#1" to="19804767#1"/>
    <trip id="veh130" type="veh_passenger" depart="335.19" departLane="best" from="-508362483#0" to="-50001927#0"/>
    <trip id="veh131" type="veh_passenger" depart="337.77" departLane="best" from="-366175336#1" to="31236760#1"/>
    <trip id="veh136" type="veh_passenger" depart="350.66" departLane="best" from="49664466#0" to="-366862391"/>
    <trip id="veh138" type="veh_passenger" depart="355.81" departLane="best" from="-173076714#0" to="378281315#1"/>
    <trip id="veh139" type="veh_passenger" depart="358.39" departLane="best" from="31321090" to="19748204#0"/>
    <trip id="veh140" type="veh_passenger" depart="360.97" departLane="best" from="361561580#0" to="31236760#0"/>
    <trip id="veh142" type="veh_passenger" depart="366.13" departLane="best" from="-31321183#0" to="67332791#1"/>
    <trip id="veh143" type="veh_passenger" depart="368.71" departLane="best" from="639625555#1" to="309712271#2"/>
    <trip id="veh148" type="veh_passenger" depart="381.60" departLane="best" from="18978590#1" to="-37566640"/>
    <trip id="veh149" type="veh_passenger" depart="384.18" departLane="best" from="37379053#0" to="67332791#1"/>
    <trip id="veh150" type="veh_passenger" depart="386.75" departLane="best" from="23646774#3" to="331354694#0"/>
    <trip id="veh151" type="veh_passenger" depart="389.33" departLane="best" from="-639625555#0" to="70083833#1"/>
    <trip id="veh152" type="veh_passenger" depart="391.91" departLane="best" from="53826242#1" to="890744301#1"/>
    <trip id="veh153" type="veh_passenger" depart="394.49" departLane="best" from="37588747#2" to="67332791#0"/>
    <trip id="veh154" type="veh_passenger" depart="397.07" departLane="best" from="-19790073" to="37526924#1"/>
    <trip id="veh155" type="veh_passenger" depart="399.65" departLane="best" from="19804776#0" to="70083833#1"/>
    <trip id="veh156" type="veh_passenger" depart="402.22" departLane="best" from="37567711#3" to="59529513#0"/>
    <trip id="veh157" type="veh_passenger" depart="404.80" departLane="best" from="37588747#2" to="19748798#1"/>
    <trip id="veh158" type="veh_passenger" depart="407.38" departLane="best" from="37526924#3" to="-401767811"/>
    <trip id="veh160" type="veh_passenger" depart="412.54" departLane="best" from="123155575" to="50001920#5"/>
    <trip id="veh162" type="veh_passenger" depart="417.69" departLane="best" from="37566262" to="19124176#1"/>
    <trip id="veh163" type="veh_passenger" depart="420.27" departLane="best" departSpeed="max" from="-19790063#1" to="173076714#1"/>
    <trip id="veh164" type="veh_passenger" depart="422.85" departLane="best" from="19804762#3" to="59529522#1"/>
    <trip id="veh165" type="veh_passenger" depart="425.43" departLane="best" departSpeed="max" from="807531845#0" to="19802240#1"/>
    <trip id="veh166" type="veh_passenger" depart="428.01" departLane="best" from="31321183#0" to="238193506#2"/>
    <trip id="veh168" type="veh_passenger" depart="433.16" departLane="best" from="67377872#1" to="-50001927#0"/>
    <trip id="veh169" type="veh_passenger" depart="435.74" departLane="best" from="807531845#3" to="122269872#0"/>
    <trip id="veh170" type="veh_passenger" depart="438.32" departLane="best" departSpeed="max" from="-367117200#1" to="239663350#2"/>
    <trip id="veh172" type="veh_passenger" depart="443.48" departLane="best" from="310425662#2" to="29110031"/>
    <trip id="veh173" type="veh_passenger" depart="446.06" departLane="best" from="236406393" to="31321098#1"/>
    <trip id="veh174" type="veh_passenger" depart="448.63" departLane="best" from="19095799" to="366848251#2"/>
    <trip id="veh175" type="veh_passenger" depart="451.21" departLane="best" from="-113880679#2" to="67661820"/>
    <trip id="veh176" type="veh_passenger" depart="453.79" departLane="best" from="28115852#3" to="367122295#2"/>
    <trip id="veh177" type="veh_passenger" depart="456.37" departLane="best" from="361613091" to="340055010"/>
    <trip id="veh178" type="veh_passenger" depart="458.95" departLane="best" from="22295886#1" to="-31290865#0"/>
    <trip id="veh179" type="veh_passenger" depart="461.53" departLane="best" from="329159952#0" to="22295872#2"/>
    <trip id="veh184" type="veh_passenger" depart="474.42" departLane="best" from="-49061644#2" to="238758815"/>
    <trip id="veh185" type="veh_passenger" depart="477.00" departLane="best" from="67377879#1" to="35783393"/>
    <trip id="veh186" type="veh_passenger" depart="479.57" departLane="best" from="639346211#0" to="331354689#1"/>
    <trip id="veh187" type="veh_passenger" depart="482.15" departLane="best" from="19748204#2" to="310127792#2"/>
    <trip id="veh189" type="veh_passenger" depart="487.31" departLane="best" from="238193506#1" to="31321183#1"/>
    <trip id="veh190" type="veh_passenger" depart="489.89" departLane="best" from="31648543#3" to="28081223"/>
    <trip id="veh191" type="veh_passenger" depart="492.47" departLane="best" departSpeed="max" from="238327266" to="18978883#1"/>
    <trip id="veh192" type="veh_passenger" depart="495.05" departLane="best" from="239077924#1" to="67332807#1"/>
    <trip id="veh193" type="veh_passenger" depart="497.62" departLane="best" from="37566434#2" to="113880678#1"/>
    <trip id="veh196" type="veh_passenger" depart="505.36" departLane="best" from="401767811" to="37567711#2"/>
    <trip id="veh197" type="veh_passenger" depart="507.94" departLane="best" from="-893655088#2" to="-19747865"/>
    <trip id="veh199" type="veh_passenger" depart="513.09" departLane="best" from="50001920#1" to="-31321183#1"/>
    <trip id="veh200" type="veh_passenger" depart="515.67" departLane="best" from="23646776#3" to="332019191#5"/>
    <trip id="veh201" type="veh_passenger" depart="518.25" departLane="best" from="261491871#0" to="19210166#2"/>
    <trip id="veh202" type="veh_passenger" depart="520.83" departLane="best" from="31648546#0" to="-113880679#1"/>
    <trip id="veh203" type="veh_passenger" depart="523.41" departLane="best" departSpeed="max" from="366702324#0" to="378281315#1"/>
    <trip id="veh204" type="veh_passenger" depart="525.99" departLane="best" departSpeed="max" from="-35784928" to="238832251#1"/>
    <trip id="veh206" type="veh_passenger" depart="531.14" departLane="best" departSpeed="max" from="28089436#0" to="-260077619#0"/>
    <trip id="veh207" type="veh_passenger" depart="533.72" departLane="best" from="330962464#0" to="893087110"/>
    <trip id="veh208" type="veh_passenger" depart="536.30" departLane="best" from="309712271#2" to="761014854"/>
    <trip id="veh209" type="veh_passenger" depart="538.88" departLane="best" from="58993471#2" to="331354686#2"/>
    <trip id="veh210" type="veh_passenger" depart="541.46" departLane="best" from="338944243#3" to="28339310#2"/>
    <trip id="veh213" type="veh_passenger" depart="549.19" departLane="best" from="239077924#2" to="19747865"/>
    <trip id="veh214" type="veh_passenger" depart="551.77" departLane="best" from="18978275" to="332019207#2"/>
    <trip id="veh217" type="veh_passenger" depart="559.50" departLane="best" from="-31648543#1" to="19802262#1"/>
    <trip id="veh218" type="veh_passenger" depart="562.08" departLane="best" from="19124197#0" to="19854002#3"/>
    <trip id="veh219" type="veh_passenger" depart="564.66" departLane="best" from="28116429" to="-64237844#0"/>
    <trip id="veh220" type="veh_passenger" depart="567.24" departLane="best" departSpeed="max" from="163394261" to="365959210"/>
    <trip id="veh222" type="veh_passenger" depart="572.40" departLane="best" from="23646774#4" to="30326489#0"/>
    <trip id="veh223" type="veh_passenger" depart="574.97" departLane="best" from="23646778#1" to="18940336#0"/>
    <trip id="veh224" type="veh_passenger" depart="577.55" departLane="best" from="23646779#8" to="67332820#3"/>
    <trip id="veh226" type="veh_passenger" depart="582.71" departLane="best" from="508282776#1" to="37588748"/>
    <trip id="veh227" type="veh_passenger" depart="585.29" departLane="best" from="22744028#0" to="-113880679#1"/>
    <trip id="veh230" type="veh_passenger" depart="593.02" departLane="best" from="23646779#4" to="37565888#1"/>
    <trip id="veh232" type="veh_passenger" depart="598.18" departLane="best" departSpeed="max" from="122269844" to="19095802#1"/>
    <trip id="veh233" type="veh_passenger" depart="600.76" departLane="best" from="238193527#4" to="-206079701"/>
    <trip id="veh234" type="veh_passenger" depart="603.34" departLane="best" from="19804779#1" to="35784923"/>
    <trip id="veh235" type="veh_passenger" depart="605.91" departLane="best" from="23646774#0" to="113880131#0"/>
    <trip id="veh240" type="veh_passenger" depart="618.81" departLane="best" departSpeed="max" from="-510585239" to="28028236"/>
    <trip id="veh241" type="veh_passenger" depart="621.38" departLane="best" from="-252160893#0" to="23646775#2"/>
    <trip id="veh243" type="veh_passenger" depart="626.54" departLane="best" from="367117203#1" to="23646775#2"/>
    <trip id="veh244" type="veh_passenger" depart="629.12" departLane="best" from="366702324#1" to="510585239"/>
    <trip id="veh245" type="veh_passenger" depart="631.70" departLane="best" from="18979106" to="-331354694#3"/>
    <trip id="veh247" type="veh_passenger" depart="636.85" departLane="best" from="976693854#1" to="22743721#1"/>
    <trip id="veh248" type="veh_passenger" depart="639.43" departLane="best" departSpeed="max" from="31321736#0" to="440965802"/>
    <trip id="veh249" type="veh_passenger" depart="642.01" departLane="best" from="74686095#0" to="173076714#3"/>
    <trip id="veh250" type="veh_passenger" depart="644.59" departLane="best" from="-19790056#0" to="-69975866"/>
    <trip id="veh251" type="veh_passenger" depart="647.17" departLane="best" from="-49060172#1" to="340055010"/>
    <trip id="veh253" type="veh_passenger" depart="652.33" departLane="best" departSpeed="max" from="332019201#0" to="37588748"/>
    <trip id="veh254" type="veh_passenger" depart="654.90" departLane="best" from="-67377872#2" to="331354673#3"/>
    <trip id="veh257" type="veh_passenger" depart="662.64" departLane="best" from="19790070#0" to="35784922#0"/>
    <trip id="veh258" type="veh_passenger" depart="665.22" departLane="best" from="786019231#0" to="237655241#1"/>
    <trip id="veh259" type="veh_passenger" depart="667.80" departLane="best" from="338940730#2" to="-329159952#0"/>
    <trip id="veh260" type="veh_passenger" depart="670.37" departLane="best" departSpeed="max" from="-35783393" to="382462786"/>
    <trip id="veh261" type="veh_passenger" depart="672.95" departLane="best" from="50001920#1" to="329159952#1"/>
    <trip id="veh263" type="veh_passenger" depart="678.11" departLane="best" from="37525221#1" to="22742149#0"/>
    <trip id="veh264" type="veh_passenger" depart="680.69" departLane="best" from="238193500#0" to="23646771#0"/>
    <trip id="veh265" type="veh_passenger" depart="683.27" departLane="best" from="28026240#0" to="22295886#1"/>
    <trip id="veh266" type="veh_passenger" depart="685.84" departLane="best" departSpeed="max" from="-35784928" to="786019235#2"/>
    <trip id="veh268" type="veh_passenger" depart="691.00" departLane="best" from="332019211#0" to="239663350#3"/>
    <trip id="veh269" type="veh_passenger" depart="693.58" departLane="best" from="35784922#1" to="814351068#2"/>
    <trip id="veh270" type="veh_passenger" depart="696.16" departLane="best" from="19124193#0" to="494840360"/>
    <trip id="veh271" type="veh_passenger" depart="698.74" departLane="best" from="238193527#4" to="37378897#2"/>
    <trip id="veh272" type="veh_passenger" depart="701.31" departLane="best" from="19124191#0" to="56767115#0"/>
    <trip id="veh274" type="veh_passenger" depart="706.47" departLane="best" departSpeed="max" from="57775984#0" to="19210166#2"/>
    <trip id="veh275" type="veh_passenger" depart="709.05" departLane="best" from="238832251#0" to="331354679"/>
    <trip id="veh276" type="veh_passenger" depart="711.63" departLane="best" from="22744025#5" to="-206079701"/>
    <trip id="veh277" type="veh_passenger" depart="714.21" departLane="best" from="50001920#3" to="131703216"/>
    <trip id="veh278" type="veh_passenger" depart="716.78" departLane="best" from="113880679#2" to="461867328#0"/>
    <trip id="veh279" type="veh_passenger" depart="719.36" departLane="best" from="19804797#1" to="67332791#0"/>
    <trip id="veh282" type="veh_passenger" depart="727.10" departLane="best" from="-331354694#3" to="367123480"/>
    <trip id="veh284" type="veh_passenger" depart="732.25" departLane="best" from="332019191#0" to="334669471#2"/>
    <trip id="veh285" type="veh_passenger" depart="734.83" departLane="best" from="260851022#0" to="444302003#0"/>
    <trip id="veh286" type="veh_passenger" depart="737.41" departLane="best" departSpeed="max" from="-335221276#4" to="19095806#2"/>
    <trip id="veh287" type="veh_passenger" depart="739.99" departLane="best" from="332019191#1" to="19804778#1"/>
    <trip id="veh288" type="veh_passenger" depart="742.57" departLane="best" from="29550056#5" to="28111986#2"/>
    <trip id="veh289" type="veh_passenger" depart="745.15" departLane="best" departSpeed="max" from="28115491" to="239077924#1"/>
    <trip id="veh291" type="veh_passenger" depart="750.30" departLane="best" from="332019207#2" to="197717492#4"/>
    <trip id="veh292" type="veh_passenger" depart="752.88" departLane="best" from="18978957#0" to="-510585240"/>
    <trip id="veh293" type="veh_passenger" depart="755.46" departLane="best" departSpeed="max" from="-890744308" to="-510585240"/>
    <trip id="veh294" type="veh_passenger" depart="758.04" departLane="best" from="-814351068#1" to="18979198"/>
    <trip id="veh295" type="veh_passenger" depart="760.62" departLane="best" from="239663352" to="371334484"/>
    <trip id="veh297" type="veh_passenger" depart="765.77" departLane="best" from="19210172#1" to="-37532037#4"/>
    <trip id="veh298" type="veh_passenger" depart="768.35" departLane="best" departSpeed="max" from="-890744308" to="19124176#1"/>
    <trip id="veh299" type="veh_passenger" depart="770.93" departLane="best" departSpeed="max" from="-767383949" to="-173076714#4"/>
    <trip id="veh301" type="veh_passenger" depart="776.09" departLane="best" from="814351068#2" to="31236760#1"/>
    <trip id="veh304" type="veh_passenger" depart="783.82" departLane="best" from="54905946" to="31291287#1"/>
    <trip id="veh305" type="veh_passenger" depart="786.40" departLane="best" departSpeed="max" from="239077924#0" to="246437530#1"/>
    <trip id="veh306" type="veh_passenger" depart="788.98" departLane="best" from="-786019230" to="-260077619#1"/>
    <trip id="veh307" type="veh_passenger" depart="791.56" departLane="best" from="426768411#1" to="238193506#3"/>
    <trip id="veh308" type="veh_passenger" depart="794.13" departLane="best" from="-31290865#0" to="332019191#5"/>
    <trip id="veh309" type="veh_passenger" depart="796.71" departLane="best" from="-27551753" to="-67661827"/>
    <trip id="veh311" type="veh_passenger" depart="801.87" departLane="best" from="893655094" to="-508362483#2"/>
    <trip id="veh312" type="veh_passenger" depart="804.45" departLane="best" from="367122295#2" to="331354673#1"/>
    <trip id="veh313" type="veh_passenger" depart="807.03" departLane="best" from="37530635#0" to="19124166"/>
    <trip id="veh314" type="veh_passenger" depart="809.61" departLane="best" from="28111986#5" to="265723207#0"/>
    <trip id="veh315" type="veh_passenger" depart="812.18" departLane="best" departSpeed="max" from="238327266" to="58993469#3"/>
    <trip id="veh316" type="veh_passenger" depart="814.76" departLane="best" from="892407215#1" to="19804778#0"/>
    <trip id="veh317" type="veh_passenger" depart="817.34" departLane="best" from="31286577#0" to="331354676#0"/>
    <trip id="veh319" type="veh_passenger" depart="822.50" departLane="best" departSpeed="max" from="113880679#0" to="18978590#1"/>
    <trip id="veh320" type="veh_passenger" depart="825.08" departLane="best" from="31739089#4" to="-814351068#1"/>
    <trip id="veh321" type="veh_passenger" depart="827.65" departLane="best" departSpeed="max" from="-70083833#1" to="-31648543#3"/>
    <trip id="veh322" type="veh_passenger" depart="830.23" departLane="best" from="-140216572" to="265723207#0"/>
    <trip id="veh324" type="veh_passenger" depart="835.39" departLane="best" departSpeed="max" from="163394261" to="366848251#1"/>
    <trip id="veh325" type="veh_passenger" depart="837.97" departLane="best" from="332019207#2" to="270571059#3"/>
    <trip id="veh326" type="veh_passenger" depart="840.55" departLane="best" from="331354694#4" to="67661814#0"/>
    <trip id="veh327" type="veh_passenger" depart="843.12" departLane="best" from="37526924#3" to="331354694#5"/>
    <trip id="veh329" type="veh_passenger" depart="848.28" departLane="best" from="237277459" to="309705604"/>
    <trip id="veh330" type="veh_passenger" depart="850.86" departLane="best" departSpeed="max" from="31321736#0" to="67377792#0"/>
    <trip id="veh331" type="veh_passenger" depart="853.44" departLane="best" from="441256452#2" to="-31321183#0"/>
    <trip id="veh332" type="veh_passenger" depart="856.02" departLane="best" departSpeed="max" from="-67377792#1" to="19804783#1"/>
    <trip id="veh335" type="veh_passenger" depart="863.75" departLane="best" from="331354694#5" to="366110885"/>
    <trip id="veh336" type="veh_passenger" depart="866.33" departLane="best" from="67661819" to="28117654"/>