<?xml version="1.0" encoding="UTF-8"?>

<!-- generated on 2021-10-31 22:33:01 by Eclipse SUMO duarouter Version 1.10.0
<configuration xmlns:xsi="http://www.w3.org/2001/XMLSchema-instance" xsi:noNamespaceSchemaLocation="http://sumo.dlr.de/xsd/duarouterConfiguration.xsd">

    <input>
        <net-file value="C:\Users\juane\Sumo\2021-10-31-22-32-17\osm.net.xml"/>
        <route-files value="C:\Users\juane\Sumo\2021-10-31-22-32-17\osm.pedestrian.trips.xml"/>
    </input>

    <output>
        <output-file value="C:\Users\juane\Sumo\2021-10-31-22-32-17\osm.pedestrian.rou.xml"/>
        <alternatives-output value="C:\Users\juane\Sumo\2021-10-31-22-32-17\osm.pedestrian.rou.alt.xml"/>
    </output>

    <time>
        <begin value="0"/>
        <end value="3600"/>
    </time>

    <report>
        <no-warnings value="true"/>
        <ignore-errors value="true"/>
        <no-step-log value="true"/>
    </report>

</configuration>
-->

<routes xmlns:xsi="http://www.w3.org/2001/XMLSchema-instance" xsi:noNamespaceSchemaLocation="http://sumo.dlr.de/xsd/routes_file.xsd">
    <vType id="ped_pedestrian" vClass="pedestrian"/>
    <person id="ped0" type="ped_pedestrian" depart="0.00">
        <walk edges="37246859#0 -37246858#1 -37246858#0 37246856#1 37246857#0 37246857#1 18615552#6 67377804 67377880 18616007#3 18616007#2 18945548#0 18945548#1 18945548#2 67377841#1 28116818#0 18616882#3 18616882#2 18616882#1 18616882#0 760268592#1 760268592#0 37569558#0 361194750 18613820 309712273 309712275#0 309712274 31283636 37522883 310127792#2 310127792#1 310127792#0 31283635#3 31283635#2 31283635#1 31283635#0 37588747#2 -37588747#1 -37588747#0 894268679#0 120608119 335221286#0 892407214 23646765#0 -207307419#1"/>
    </person>
    <person id="ped1" type="ped_pedestrian" depart="2.11">
        <walk edges="19124193#1 19124193#2 331354691#0 331354691#1 331354691#2 28117009#0 28117009#1 28116429 331354687#0 331354687#2 331354690 -401767811 37246859#1 37246859#0 976693852 18979517#0 18979517#1 18979517#2 222815976#1 222815976#2 18980081#1 18615552#11"/>
    </person>
    <person id="ped2" type="ped_pedestrian" depart="4.22">
        <walk edges="422420209 376908941#3"/>
    </person>
    <person id="ped3" type="ped_pedestrian" depart="6.33">
        <walk edges="700068775#0 700068769#1 53826245#2 28117654 28117656#0 28117656#2 19748798#1 639625555#1 331354694#0 -67332820#5 -67332820#4 670969140 -406432861#0"/>
    </person>
    <person id="ped4" type="ped_pedestrian" depart="8.44">
        <walk edges="261211939#2 261211939#1 261211939#0 28116816 37569559#1 37569559#0 361194750 18613820 361194752 37569562#1 37569562#0 37522886 31284810#0 31284810#1 332019211#1 37567711#0 -22744006 361315830#0 -19804769 19804766#1 -37565888#0 437986117#1 437986117#0 -37530635#3 19804762#3 19804762#1 330962464#1 330962464#0 38622296 -237519742#1"/>
    </person>
    <person id="ped5" type="ped_pedestrian" depart="10.55">
        <walk edges="-223043135 -67377872#3 160127235#0 160127236 160127234#2 160127234#3 160127234#4 160127234#5"/>
    </person>
    <person id="ped6" type="ped_pedestrian" depart="12.66">
        <walk edges="37379053#0 37379053#1 371334484 122269872#0 122269872#1 122269872#2 22743745#0 22743745#1 22743745#2 22743745#3 19790066 19790064#1 19790071#0 19790071#1 67377793#2 67377793#1 -19790073 -28114058#0 -28114058#1 -28114058#2 -28114058#3 160129062#0 160129062#1 31321653#0"/>
    </person>
    <person id="ped7" type="ped_pedestrian" depart="14.77">
        <walk edges="18545937 31324769#2 309712271#2 309712271#1 309712271#0 37569562#1 37569562#0 37522886 332019210"/>
    </person>
    <person id="ped8" type="ped_pedestrian" depart="16.88">
        <walk edges="56767128#0 18979106 18978227 331354675 331354676#0 331354676#1 -331354693#0 28117513#0 28116429 -261491870#3 -18978590#4"/>
    </person>
    <person id="ped9" type="ped_pedestrian" depart="18.99">
        <walk edges="56767120#1 18978227 331354675 331354676#0 331354676#1 -331354693#0 67332795 28117009#0 191697530#0 191697530#1 444302005 331354674#2 331354674#1 331354674#0 127353237#1 28117656#2 28117656#0 28117654 53826245#2 700068769#1 700068770#0 700068773 403903963 530743828#1 700068774 74517187 78631712#0 403903959"/>
    </person>
    <person id="ped11" type="ped_pedestrian" depart="23.22">
        <walk edges="786019231#2 163394258 786019230 29550101#0 29550101#1 31286569#0 31286569#1 -53826245#2 -28117654 -28117656#1 -28117656#3 -18978590#0 -18978590#3 -18978590#4 -908360097 -238193527#0 -238193527#3 -238193527#4 239209578#2 367123479 19124173#2 19124173#0 286090200#1 286090200#2 26707226#0 26707232 19853987#0"/>
    </person>
    <person id="ped13" type="ped_pedestrian" depart="27.44">
        <walk edges="56767124 28117351#0 28117351#1 331354676#0 331354676#1 -331354693#0 28117513#0 28116429 -19124180#1 19124184 238193500#0 238193500#1 419392153#1 419392153#0"/>
    </person>
    <person id="ped15" type="ped_pedestrian" depart="31.66">
        <walk edges="236406393 -49061644#0 29550040#2 31286644 29550032#0 53826243#0 163400037#0 163400037#1 163400039 349145297#4 95708293 192056410#0 458722842#1 458722826 458722830#1 532422707#1 532422707#0 95708298 532422706#1 31739089#2 31648547"/>
    </person>
    <person id="ped16" type="ped_pedestrian" depart="33.77">
        <walk edges="632014798#0 632014798#1 632014798#2 632014798#3 409592328#9 409592328#8 19210168#1 -329159952#1 -329159952#0 893655088#2 670969121#0 670969126 407191882#4 407191882#3 407191882#2 407191882#1 366848268#0"/>
    </person>
    <person id="ped17" type="ped_pedestrian" depart="35.88">
        <walk edges="67332811#0 366862903#0 366862903#1 366862903#2 366862903#3 28111986#0 67332820#0 19124212 19124193#2 331354691#0 331354691#1"/>
    </person>
    <person id="ped18" type="ped_pedestrian" depart="37.99">
        <walk edges="407191859#1 163393999#1 700068770#1 700068770#0 700068769#1 53826245#2 28117654 28117656#0 -28117656#3 -18978590#0 18978590#1 18978590#4 261491870#1 28116429 331354687#0 331354687#2 331354690 -401767811 37246859#1 37246859#0 976693852 18979517#0 18979517#1 18979517#2 222815976#0 222815976#5 18979517#6 18979517#7 256163526 -28115679#1"/>
    </person>
    <person id="ped19" type="ped_pedestrian" depart="40.10">
        <walk edges="18616007#2 18616007#1 18616007#0 261211941#1 28116858 37378897#0 37378897#1 37378897#2 223046212 460349351 331354695#1 760265070 760265071#1 761678377 761678376 56767125#0 56767125#1 56767125#2 382462786 18978957#1 18978957#0 426768411#1 366862903#2 367117203#6 19210180#0"/>
    </person>
    <person id="ped20" type="ped_pedestrian" depart="42.21">
        <walk edges="-37565660#1 -37532037#4 -28028236 -444272398#3 18937654#0"/>
    </person>
    <person id="ped21" type="ped_pedestrian" depart="44.32">
        <walk edges="-597786474#1 -597786474#0 22295873 22295872#0 31321736#1 160129062#1 160129062#0 -28114058#3 -28114058#2 -28114058#1 -28114058#0 -19790073 67377793#1 67377793#2 19790071#1 19790071#0 19790064#1 19790066 22743745#3 22743745#2 22743745#1 22743745#0 122269872#2 122269872#1 122269872#0 371334484 37379053#1 37379053#0 56767122 22743721#1 217797727#0 382462792#1 382462792#2 382462789 28117491#1 382462786 379377383#0 379377383#1 331354693#3 331354693#2 19124203"/>
    </person>
    <person id="ped22" type="ped_pedestrian" depart="46.43">
        <walk edges="370733749 370733748 261211939#2 261211941#0 18616007#0 19095780#1 19095780#0 18615552#3 28116755#1 28116755#0 22743764#2 22743764#3 22743764#4"/>
    </person>
    <person id="ped23" type="ped_pedestrian" depart="48.54">
        <walk edges="19124160#1 19124160#0 332019191#1 332019191#0 331354673#5 331354673#4 331354673#3 331354673#2 331354673#1 331354673#0 19095795 28069904#0 -28115679#1 256163526 18979517#7 18615552#15 18615552#14 18615552#12 18615552#11 18615552#10 18615552#9 18615552#8 18615552#6 18615552#4 18615552#3 18615552#2 18615552#1 18615552#0 761673866#1"/>
    </person>
    <person id="ped24" type="ped_pedestrian" depart="50.65">
        <walk edges="37375825#0 -332019191#3 -332019191#2 -332019191#1 -332019191#0 331354673#5 331354673#4 331354673#3 331354673#2 331354673#1 331354673#0 19095795 256163529 67377860 294382770 366023179"/>
    </person>
    <person id="ped25" type="ped_pedestrian" depart="52.76">
        <walk edges="138582671#0 138582671#1 138582663 138582682#3 138582682#4 407752607 138582673#0 407752603#1 28113943#1 28112752 376691937 28113987#1 28113987#2 28112713#1 19790069 19790067#1 19790067#0 -28115491 274571001 22743745#1 22743745#0 122269872#2 122269872#1 761673864 761673865#1 761673863 309605528 56767109 217797728 28111690#0 28111690#1 28111690#2 270571059#0 270571059#1 418142484"/>
    </person>
    <person id="ped27" type="ped_pedestrian" depart="56.98">
        <walk edges="892407195#2 373489785#0 638513787 31236760#1 31236760#0 29110031 -19747779 -19747856 -19747865 160118790#4 261491872 127353234#1 19748204#0 239210559#1 239210559#0 239209578#2 239209578#1 239209578#0 380824802 18979795 37246859#1"/>
    </person>
    <person id="ped30" type="ped_pedestrian" depart="63.32">
        <walk edges="18616007#6 19095778 18615552#9 18615552#10 18615552#11 18615552#12 18615552#14 18615552#15 18979517#7 256163526 -28115679#1 28069904#0 19095795 331354673#0 331354673#1 331354673#2 331354673#3 331354673#4 331354673#5 -332019191#0 -332019191#1 -332019191#2 -332019191#3 37375825#0 -19124186 -238193529#6"/>
    </person>
    <person id="ped31" type="ped_pedestrian" depart="65.43">
        <walk edges="19802251#1 31285754#1 31285754#0 28115723#1 28115723#0 309785074 19802244 309712274 19802253 37522887 332019210 31284810#0 332019199 309712272 28027584#3 28027584#1 429907872#1 -37568142 -64237844#0 -671589875#0 -671589875#1 -28028545#0 -28028545#1 -28115702#3 28115702#1 -908827589#1 28115679#2 -28115679#1 28069904#0 19095795 331354673#0 331354673#1 331354673#2 331354673#3 331354673#4 331354673#5 332019191#0 332019191#1 332019191#2 332019191#3 19124167"/>
    </person>
    <person id="ped33" type="ped_pedestrian" depart="69.65">
        <walk edges="67377840 367122294 237655241#0 237655241#1 116395149#0 116395149#1 116395149#2 28115592 19802250#1 19802250#2"/>
    </person>
    <person id="ped34" type="ped_pedestrian" depart="71.76">
        <walk edges="37532037#0 19804767#0 19804767#1 19804768 37567711#2 37567711#1 37567711#0 332019211#1 31284810#1 31284810#0 37522886 -252729832 151278398 116198088 19802240#0 28115626#0 28115626#1 28115652#0 19802264#1 19802264#0 19790070#1 367122294 237655241#0"/>
    </person>
    <person id="ped35" type="ped_pedestrian" depart="73.87">
        <walk edges="74686100 163399445 29550067#2 29550067#3 31287022#1 57775976 786019231#1 163394258 786019230 29550101#0 29550101#1 31286569#0 31286569#1 -53826245#2 -28117654 -28117656#1 28117656#2 19748798#1 639625555#1 331354694#0 -67332820#5 -67332820#4 -67332820#3 -67332820#2 -67332820#1 67332820#0 28111986#0 366862903#3 426768411#1 426768411#0 217797727#2 217797727#0 22743721#1 56767122 37379053#0 37379053#1 371334484 122269872#0 122269872#1 122269872#2 22743745#0 22743745#1 22743745#2 22743745#3 19790066 19790064#1 19790064#2 19790064#3 28115304"/>
    </person>
    <person id="ped36" type="ped_pedestrian" depart="75.98">
        <walk edges="19095807 222815977#5 222815977#6 331354688 22742348 380824802 19124191#1 19124191#0 331354687#2 331354687#0 28116429 261491870#1 18978590#4 18978590#1"/>
    </person>
    <person id="ped37" type="ped_pedestrian" depart="78.09">
        <walk edges="328447414 237277459 -28114058#3 -28114058#2 -28114058#1 -28114058#0 -19790073 67377793#1 67377793#2 19790071#1 19790071#0 19790064#1 19790066 22743745#3 22743745#2 22743745#1 22743745#0 122269872#2 122269872#1 122269872#0 371334484 37379053#1 969864398 18939655#5 18939724 22743996#2 22743996#1 760265071#3 760265071#2 760265071#1 760265071#0 761673866#1 18615552#0 18615552#1 18615552#2 18615552#3 18615552#4 18615552#6 18615552#8 18615552#9 18615552#10 18615552#11 18615552#12 18615552#14 18615552#15 18979517#7 256163526 -28115679#1 28069904#0 19095795 331354673#0 331354673#1 331354673#2 19095802#0 19095804 19095803#0"/>
    </person>
    <person id="ped39" type="ped_pedestrian" depart="82.31">
        <walk edges="238193529#1 238193529#0 239210559#1 239210559#0 19124180#2 19124180#0 28116429 28117513#0 331354693#0 331354693#1 331354693#2 331354693#3 379377383#1 379377383#0 56767125#2 56767125#1 56767102#19 18980244#2 761674248#1 56767102#15 18939338#0 -18545389#1 18545389#0"/>
    </person>
    <person id="ped41" type="ped_pedestrian" depart="86.53">
        <walk edges="-49060172#0 29550040#1 29550040#2 31286644 29550032#0 53826243#0 53826243#2 53826243#3 53826243#4 452879654 894268683 19747779 -19747856 -19747865 160118790#4 261491872 127353234#1 19748204#0 239210559#1 239210559#0 19124180#2 19124180#0 28116429 28117513#0 331354693#0 331354693#1 -331354693#2 -331354693#3 -28117380"/>
    </person>
    <person id="ped42" type="ped_pedestrian" depart="88.64">
        <walk edges="-643161233#0 31739089#3 31739089#2 31739089#1 31739089#0 67332801#2 67332801#1 64479086#2 64479086#1 64479086#0 338944243#3 814351068#1 814351068#2 814351068#3 814351068#4 814351068#6 19748798#1 639625555#1 331354694#0 -67332820#5 -67332820#4 -67332820#3 -67332820#2 -67332820#1 -67332820#0 -19210179 367117203#4 367117203#3 19210174 67332799#0 28111865 367117199#1"/>
    </person>
    <person id="ped43" type="ped_pedestrian" depart="90.75">
        <walk edges="542662379 31286612#4 74686098#0 31286586#1 31286586#0 53826242#5 53826242#6 53826242#7 31286577#0 31286577#1 31286569#0 31286569#1 -53826245#2 -28117654 -28117656#1 -28117656#3 -18978590#0 18978590#1 18978590#4 19124195 191697530#1 191697530#0 28117009#0 67332795 -331354693#0 331354676#1 331354676#0 331354675 18978227 18979106 56767128#0 56767128#1 27663059#1 56767129 18615552#1 252916206 252916207 37378897#2 37378897#1 37378897#0 28116858 261211941#1 261211941#0"/>
    </person>
    <person id="ped44" type="ped_pedestrian" depart="92.86">
        <walk edges="95708293 349145297#5 458722838#0 458722827 458722841#1 458722841#2 236420473#0 160118790#4 261491872 127353234#1 19748204#0 239210559#1 239210559#0 19124180#2 19124180#0 28116429 28117513#0 -331354693#0 331354676#1 331354676#0 331354675 18978227 18979106 56767128#0 56767128#1 27663059#1 56767129 18615552#1 252916206 252916207 37378897#2 37378897#1 18939655#0 739563903 739563905 739563908 739563902 739563907 739563904 414702825 331354681#1 18940377 370733752 -370733753 370733750 28115852#3 19802242 19802241#1 19802241#2 19802240#0 19802240#1 19802240#2 28115723#0 28115723#1 31285754#0"/>
    </person>
    <person id="ped46" type="ped_pedestrian" depart="97.09">
        <walk edges="-19210168#4 19210176#0 19210173 67332799#0 67332799#1 67332799#2 420781574#1 67332799#4 19210180#2 28111941#0 28111941#1 31320571 279072124 279072119 367117200#0 -367117200#1 177486190 56767102#21 22743721#1 56767122 37379053#0 37379053#1 371334484 122269872#0 122269872#1 122269872#2 22743745#0 22743745#1 274571001 -28115491 19790067#0 19790067#1 19790069 28112713#1 28113987#2 28113987#1 376691937 28112752 28113943#1 407752603#1 138582673#0 407752607 138582682#5 85650465#3 138582675#0 138582675#1 408046218 408046235#3"/>
    </person>
    <person id="ped48" type="ped_pedestrian" depart="101.31">
        <walk edges="19124160#0 332019191#2 19124166 37376927 19124185#3 67661825 286090200#2 286090200#1 239209576 18979795 37246859#1 37246860#0 37246861"/>
    </person>
    <person id="ped49" type="ped_pedestrian" depart="103.42">
        <walk edges="-67332820#0 28111986#0 366862903#3 426768411#1 426768411#0 217797727#2 217797727#0 22743721#1 56767122 37379053#0 969864398 332019194#5 332019194#4 332019194#3 332019194#2 332019194#1 331354678 37573096 240055833 18940336#1 18940336#0 18945752 37569559#1 37569559#0 37569558#0 37569558#1 309712271#2 18977862#0 18977862#1 18977862#2 28027584#3"/>
    </person>
    <person id="ped50" type="ped_pedestrian" depart="105.53">
        <walk edges="28114029 67377793#0 67377793#1 28115259 28115244#1 28115303 222814105#0 422633156#1 331354677 116395149#3 28115592 19802250#1 19802251#0 19802251#1 -335906838 119564809#0 31284953#1 31284953#0 31284618 367130634 37566262 361265992#0 361265992#1 31284608#0 31284608#1 -37530635#3 37530634 19804752#0 19804752#1 37530630 768280575"/>
    </person>
    <person id="ped51" type="ped_pedestrian" depart="107.64">
        <walk edges="67377834#1 119564809#3 31284953#1 19802249 -67377790 19802248#1 19802248#0 310127792#1 310127792#2 37522883 123155575 37522887 332019210 31284810#0 332019199 309712272 28027584#3 28027584#1 429907872#1 -37568142 -64237844#0 -671589875#0 -671589875#1 -28028545#0 -28028545#1 -28115702#3 28115702#1 -908827589#1 28115679#2 -28115679#1 28069904#0 19095795 331354673#0 331354673#1 331354673#2 19095802#0 19095804"/>
    </person>
    <person id="ped52" type="ped_pedestrian" depart="109.75">
        <walk edges="29550048#0 31286586#2 31286586#1 31286586#0 53826242#5 53826242#6 53826242#7 31286577#0 31286577#1 31286569#0 31286569#1 -53826245#2 -28117654 -28117656#1 28117656#2 19748798#1 639625555#1 331354694#0 -67332820#5 -67332820#4 -67332820#3 -67332820#2 -67332820#1 67332820#0 28111986#0 366862903#3 426768411#1 426768411#0 217797727#2 217797727#0 22743721#1 56767122 37379053#0 37379053#1 371334484 122269872#0 122269872#1 122269872#2 22743745#0 22743745#1 274571001 -28115491 19790067#0 19790067#1 19790069 28112713#1 28113987#2 28113987#1 376691937 28112752 28113943#1 407752603#1 138582673#0 407752607 138582682#5 85650465#3 138582675#0 138582675#1 408046218 408046235#3 408046220 138582677#7"/>
    </person>
    <person id="ped53" type="ped_pedestrian" depart="111.86">
        <walk edges="74686096#0 29550048#0 31286586#2 31286586#1 31286586#0 53826242#5 53826242#6 53826242#7 31286577#0 31286577#1 31286569#0 31286569#1 -53826245#2 -28117654 -28117656#1 28117656#2 19748798#1 639625555#1 331354694#0 -67332820#5 -67332820#4 -67332820#3 -67332820#2 -67332820#1 67332820#0 28111986#0 366862903#3 426768411#1 426768411#0 217797727#2 217797727#0 22743721#1 56767122 37379053#0 969864398 332019194#5 332019194#4 332019194#3 332019194#2 332019194#1 331354678 67377809"/>
    </person>
    <person id="ped54" type="ped_pedestrian" depart="113.97">
        <walk edges="197717494#0 392815620#5 392815623#0 31291220#1 392815623#2 197717493 -53826245#2 -28117654 -28117656#1 -28117656#3 -18978590#0 18978590#1 18978590#4 261491870#1 28116429 331354687#0 331354687#2 331354690 401767811 331354689#0 331354689#1 37246856#1 37246857#0"/>
    </person>
    <person id="ped55" type="ped_pedestrian" depart="116.08">
        <walk edges="366023179 28115428#1 28115428#0 28115745#1 28115745#0 18616007#10 18616007#9 361194753 19095784#1 19095784#0 18945609#1 286771260 -18616774 37568322#1 37568322#2 18613259 760268592#1 760268592#0 37569558#0 361194750 129571747 18546016 19802241#0 19802241#1 19802241#2 28115626#0 28115626#1 28115652#0 28115652#1 28115652#2 116395149#0"/>
    </person>
    <person id="ped56" type="ped_pedestrian" depart="118.19">
        <walk edges="452879653#1 31286977#1 31286977#0 29550032#1 31286644 29550040#5 29550040#7 29550040#8 441256452#0 441256452#1 441256452#2 441256452#3 441256452#4 441256452#5 441256452#6 441256452#7 392815623#5 392815623#6 392815623#0 31291220#1 31291220#2 31291220#3"/>
    </person>
    <person id="ped57" type="ped_pedestrian" depart="120.30">
        <walk edges="-113880132#0 31285023#3 31285023#2 31285023#1 31285023#0 -310425662#0 335907670#0 31285754#1 31285754#0 28115723#1 28115723#0 309785074 19802244 309712274 19802253 37522887 332019210 31284810#0 332019199 309712272 28027584#3 28027584#1 429907872#1 -37568142 -64237844#0 762373673#0 762373673#1 762373673#2 762373669 762373677 19095782#2 19804761#2"/>
    </person>
    <person id="ped58" type="ped_pedestrian" depart="122.41">
        <walk edges="-19804746#0 22747289 28112183 67624195#0 56767102#5 56767102#6 56767102#7 56767102#8 377736339#6 56767102#10 56767102#11 287836518#3 -287836522 56767102#13 22743721#1 217797727#0 382462792#1 382462792#2 382462789 28117491#1 382462786 56767125#2 56767123 760265075#4 760265075#3 760265081#1 760265081#2"/>
    </person>
    <person id="ped59" type="ped_pedestrian" depart="124.52">
        <walk edges="67377853#0 67377853#1 67377830#0 67377830#1 28112665#0 31320752#2 19790067#2 19790067#1 19790067#0 -28115491 274571001 22743745#1 22743745#0 122269872#2 122269872#1 761673864 761673865#1 761673863 309605528 56767109 217797728 28111690#0 28111690#1 28111690#2 270571059#0 270571059#1 270571059#3 366862390 22742501#2 632014796#0 632014800#0"/>
    </person>
    <person id="ped60" type="ped_pedestrian" depart="126.63">
        <walk edges="19790067#2 19790067#1 19790067#0 -28115491 274571001 22743745#1 22743745#0 122269872#2 122269872#1 122269872#0 371334484 37379053#1 37379053#0 56767122 22743721#1 217797727#0 217797727#2 426768411#0 426768411#1 366862903#3 28111986#0 67332820#0 67332820#1 67332820#2 67332820#3 67332820#4 67332820#5 -331354694#1 127353237#0 127353237#1 -814351068#6 -814351068#5 -814351068#3 -814351068#2 814351068#1 338944243#3 64479086#0 64479086#1 64479086#2 67332801#1 31648543#4 31648543#3 -31648543#2"/>
    </person>
    <person id="ped61" type="ped_pedestrian" depart="128.74">
        <walk edges="67377849 18616882#2 18616882#3 28116818#0 67377841#1 67377841#0 18945609#0 18945609#1 18945609#2 762373675 762373674#1 762373676#0 762373676#1 762373676#2"/>
    </person>
    <person id="ped62" type="ped_pedestrian" depart="130.85">
        <walk edges="-406432859#1 -406432859#2 -406432859#3 67332812 28111986#5 28111986#4 28111986#3 28111986#2 28111986#0 366862903#3 426768411#1 426768411#0 217797727#2 217797727#0 22743721#1 56767122 37379053#0 969864398 332019194#5 332019194#4 332019194#3 332019194#2 332019194#1 332019194#0 332019195 28115852#0 28115852#1 28115852#2 28115852#3 28115852#4 18546016 37569560 361194752 37569562#1 37569562#0 37522886 31284810#0 31284810#1 332019211#1 37567711#0 -22744006 361315830#0 -19804769 19804766#1 -37565888#0 437986117#1 437986117#0 -37530635#3 22746358 28026240#0 239663352 28370590"/>
    </person>
    <person id="ped63" type="ped_pedestrian" depart="132.96">
        <walk edges="-338940730#4 29550101#0 29550101#1 31286569#0 31286569#1 -53826245#2 -28117654 -28117656#1 28117656#2 19748798#1 639625555#1 331354694#0 -67332820#5 -67332820#4 -67332820#3 -67332820#2 -67332820#1 67332820#0 28111986#0 366862903#3 426768411#1 426768411#0 217797727#2 217797727#0 22743721#1 56767122 37379053#0 37379053#1 371334484 122269872#0 122269872#1 122269872#2 22743745#0 22743745#1 274571001 -28115491 19790067#0 19790067#1 19790069 28112713#1 28113987#2 28113987#1 376691937 28112752 28113943#1 407752603#1 138582673#0 407752607 138582682#5 85650465#3 138582675#0 138582675#1 408046218 408046235#3 408046220 138582677#6 138582677#5 408046231#0 444453200"/>
    </person>
    <person id="ped65" type="ped_pedestrian" depart="137.19">
        <walk edges="28116755#1 28116755#0 22743764#2 367627834 -18979198 -367627833#0 -367627833#3 331354689#1 331354689#0 18979795 380824802 239209578#0 239209578#1 239209578#2 239210559#0 239210559#1 19748204#0 127353234#1 261491872 160118790#4 31648543#1 31648543#2"/>
    </person>
    <person id="ped66" type="ped_pedestrian" depart="139.30">
        <walk edges="19095807 222815977#4 222815977#3 19210164 18979517#2 222815976#1 222815976#2 18980081#1 18615552#10 18615552#9 19095778 18616007#5 18616007#4 18616007#3 67377816"/>
    </person>
    <person id="ped68" type="ped_pedestrian" depart="143.52">
        <walk edges="31291220#3 31291224 29471930#1 29471930#0 786019235#0 -29471907#1 53826245#2 28117654 28117656#0 -28117656#3 814351068#6 814351068#4 814351068#3 814351068#2 814351068#1 419392153#1"/>
    </person>
    <person id="ped69" type="ped_pedestrian" depart="145.63">
        <walk edges="160127236 160127234#1 28113943#6 -67377872#1 426753821 116395149#5 116395149#4 116395149#3 116395149#2 116395149#1 116395149#0 28115652#2 28115652#1 28115652#0 28115626#1 28115626#0 19802241#2"/>
    </person>
    <person id="ped70" type="ped_pedestrian" depart="147.74">
        <walk edges="940309790 -261491871#0 -238193529#9 -238193529#6 -238193529#5 -238193529#3 -238193529#0 239210559#1 239210559#0 19124180#2 19124180#0 28116429 28117513#0 331354693#0 331354693#1 331354693#2 331354693#3 379377383#1 379377383#0 382462786 28117491#1 382462789 382462792#2 382462792#1 217797727#0 22743721#1 56767122 37379053#0"/>
    </person>
    <person id="ped71" type="ped_pedestrian" depart="149.85">
        <walk edges="28089431#2 28089431#1 444274685#0 239663350#3 23646774#2 330962460#1 28339310#1 28339310#2 328816036 332019207#0 332019207#2 332019207#4 238832251#0 238832251#1 328816037#0 58993470#0 310425662#0 310425662#1"/>
    </person>
    <person id="ped72" type="ped_pedestrian" depart="151.96">
        <walk edges="-69975866 -261491871#5 -261491871#0 -67661814#2 -332019191#5 -332019191#3 19124166 37376927 19124185#3 67661825 286090200#2 286090200#1 239209576 18979795 -401767811 28116741#0 28116741#1 28116741#2 331354686#0 331354686#1 28116714 19124188#0 56767120#1 18979106 56767128#0 56767128#1 27663059#1 56767129 18615552#2"/>
    </person>
    <person id="ped73" type="ped_pedestrian" depart="154.07">
        <walk edges="206079700 70083833#1 70083834 206080260#1 206080260#0 35784923 929822151#0 -238832251#1 -238832251#0 332019207#4 332019207#2"/>
    </person>
    <person id="ped74" type="ped_pedestrian" depart="156.18">
        <walk edges="18616007#9 361194753 19095784#1 19095784#0 18945609#1 286771260 -18616774 37568322#1 31324769#0 31324769#1 18545937"/>
    </person>
    <person id="ped75" type="ped_pedestrian" depart="158.29">
        <walk edges="-35784928 35784928 35784930#1 -31321183#0 -31321183#1 -494999660 -190113001 -22742149#1 31322417#0 116395149#5 116395149#4 331354677 422633156#0 422633154#2 422633154#1 28115304 19790064#3 19790064#2 19790064#1 19790066 22743745#3 22743745#2 22743745#1 22743745#0 122269872#2 122269872#1 122269872#0 371334484 37379053#1 37379053#0 56767122 22743721#1 217797727#0 217797727#2 426768411#0 426768411#1 366862903#2 367117203#6"/>
    </person>
    <person id="ped77" type="ped_pedestrian" depart="162.51">
        <walk edges="18940032 332019194#3 332019194#2 332019194#1 331354678 37573096 240055833 18940336#1 18940336#0 18945752 37569559#1"/>
    </person>
    <person id="ped79" type="ped_pedestrian" depart="166.73">
        <walk edges="761673865#0 761673865#1 761673864 122269872#0 371334484 18940032 67377858 28116157#0 28116157#1 28116157#2 331354681#0"/>
    </person>
    <person id="ped80" type="ped_pedestrian" depart="168.84">
        <walk edges="28116203 22743996#2 18939724 18939655#5 969864398 37379053#1 371334484 122269872#0 122269872#1 122269872#2 22743745#0 22743745#1 22743745#2 22743745#3 19790066 19790064#1 19790064#2 19790064#3 28115304 422633154#1 422633154#2 422633156#0 331354677 116395149#4 116395149#5 -19802262#1 -19802263#1 508362482"/>
    </person>
    <person id="ped81" type="ped_pedestrian" depart="170.95">
        <walk edges="56767125#0 761678376 56767102#16 761674248#0 760265071#3 22743996#1 22743996#2 18939724 18939655#5 969864398 37379053#1 371334484 122269872#0 122269872#1 122269872#2 22743745#0 22743745#1 22743745#2 22743745#3 19790066 19790064#1 19790071#0 19790071#1 67377793#2 67377793#1 -19790073 -28114058#0 -28114058#1 160085441#1"/>
    </person>
    <person id="ped82" type="ped_pedestrian" depart="173.07">
        <walk edges="-53826243#3 -53826243#4 452879654 894268683 19747779 -19747856 -19747865 160118790#4 261491872 127353234#1 -19748204#0 -239210559#4 -239210559#0 -238193527#4 238193527#1 238193527#0 19124158#0 -19124195 -444302003#0 -444302003#1 -444302003#2 67332820#2 67332820#1 67332820#0 28111986#0 366862903#3 366862903#2 366862903#1 31320571 279072124 279072119"/>
    </person>
    <person id="ped83" type="ped_pedestrian" depart="175.18">
        <walk edges="261491871#3 -261491871#0 -67661814#2 -332019191#5 -332019191#3 19124166 37376927 19124185#3 67661825 286090200#2 286090200#1 239209576 18979795 -401767811 28116741#0 28116741#1 28116741#2 331354686#0 331354686#1 28116714 19124188#0 56767120#1 18979106 56767128#0 56767128#1 27663059#1 56767129 18615552#1 252916206 252916207 37378897#2 37378897#1 18939655#0 739563903 739563905 739563908 739563902 739563907 739563904 414702825 331354681#1 18940377 370733752 -370733753 370733750 28115852#3 19802242 19802241#1 19802241#2 19802240#0 19802240#1 19802240#2 28115723#0"/>
    </person>
    <person id="ped84" type="ped_pedestrian" depart="177.29">
        <walk edges="414702825 331354681#1 18940377 370733752 -370733753 370733750 28115852#3 28115852#4 67377814#0 67377814#1 151278398 309712275#0 309712274 31283636 37522883 310127792#2 310127792#1 310127792#0 31283635#3 31283635#2 31283635#1 31283635#0 37588747#2"/>
    </person>
    <person id="ped85" type="ped_pedestrian" depart="179.40">
        <walk edges="85650465#1 138582673#1 138582673#0 407752603#1 28113943#1 28112752 376691937 28113987#1 28113987#2 28112713#1 19790069 19790067#1 19790067#0 -28115491 274571001 22743745#1 22743745#0 122269872#2 122269872#1 122269872#0 371334484 37379053#1 37379053#0 56767122 22743721#1 217797727#0 217797727#2 426768411#0 426768411#1 366862903#3 28111986#0 67332820#0 67332820#1 67332820#2 67332820#3 67332820#4 -54905947#1 -54905947#0"/>
    </person>
    <person id="ped86" type="ped_pedestrian" depart="181.51">