<?xml version="1.0" encoding="UTF-8"?>

<!-- generated on 2021-10-31 22:32:47 by Eclipse SUMO polyconvert Version 1.10.0
<configuration xmlns:xsi="http://www.w3.org/2001/XMLSchema-instance" xsi:noNamespaceSchemaLocation="http://sumo.dlr.de/xsd/polyconvertConfiguration.xsd">

    <input>
        <net-file value="osm.net.xml"/>
        <osm-files value="osm_bbox.osm.xml"/>
        <osm.keep-full-type value="true"/>
        <type-file value="C:\Program%20Files%20(x86)\Eclipse\Sumo\data\typemap\osmPolyconvert.typ.xml"/>
    </input>

    <output>
        <output-file value="osm.poly.xml"/>
    </output>

    <processing>
        <poi-layer-offset value="5"/>
    </processing>

    <report>
        <verbose value="true"/>
    </report>

</configuration>
-->

<additional xmlns:xsi="http://www.w3.org/2001/XMLSchema-instance" xsi:noNamespaceSchemaLocation="http://sumo.dlr.de/xsd/additional_file.xsd">
    <location netOffset="-233394.98,-4141258.42" convBoundary="-640.54,-7290.30,3738.58,6468.57" origBoundary="-6.015640,37.313966,-5.971173,37.439069" projParameter="+proj=utm +zone=30 +ellps=WGS84 +datum=WGS84 +units=m +no_defs"/>

    <poly id="102882421" type="building.yes" color="255,230,230" fill="1" layer="-1.00" shape="398.980155,1487.781420 387.144010,1498.246360 392.204991,1503.239662 395.707982,1499.961729 398.176665,1502.327041 400.435314,1504.499084 402.328088,1506.316191 400.519564,1508.251374 403.451163,1511.235156 405.933660,1513.200091 407.860090,1514.127372 410.198092,1514.897102 412.124175,1515.257816 413.492770,1515.091954 414.375768,1514.986020 414.468222,1514.272069 414.551821,1513.558401 414.576277,1512.380024 414.217170,1509.458598 412.853578,1506.447012 410.432014,1503.613598 407.489787,1500.852342 405.838526,1502.438116 404.511744,1501.136204 403.267132,1499.909437 399.762454,1496.466234 401.833791,1494.433791 403.587062,1492.711449 400.769507,1489.690700 398.980155,1487.781420"/>
    <poly id="102882421#1" type="man_made.tower" color="255,230,230" fill="1" layer="-1.00" shape="398.980155,1487.781420 387.144010,1498.246360 392.204991,1503.239662 395.707982,1499.961729 398.176665,1502.327041 400.435314,1504.499084 402.328088,1506.316191 400.519564,1508.251374 403.451163,1511.235156 405.933660,1513.200091 407.860090,1514.127372 410.198092,1514.897102 412.124175,1515.257816 413.492770,1515.091954 414.375768,1514.986020 414.468222,1514.272069 414.551821,1513.558401 414.576277,1512.380024 414.217170,1509.458598 412.853578,1506.447012 410.432014,1503.613598 407.489787,1500.852342 405.838526,1502.438116 404.511744,1501.136204 403.267132,1499.909437 399.762454,1496.466234 401.833791,1494.433791 403.587062,1492.711449 400.769507,1489.690700 398.980155,1487.781420"/>
    <poly id="102882421#2" type="tourism.viewpoint" color="207,245,201" fill="1" layer="-2.00" shape="398.980155,1487.781420 387.144010,1498.246360 392.204991,1503.239662 395.707982,1499.961729 398.176665,1502.327041 400.435314,1504.499084 402.328088,1506.316191 400.519564,1508.251374 403.451163,1511.235156 405.933660,1513.200091 407.860090,1514.127372 410.198092,1514.897102 412.124175,1515.257816 413.492770,1515.091954 414.375768,1514.986020 414.468222,1514.272069 414.551821,1513.558401 414.576277,1512.380024 414.217170,1509.458598 412.853578,1506.447012 410.432014,1503.613598 407.489787,1500.852342 405.838526,1502.438116 404.511744,1501.136204 403.267132,1499.909437 399.762454,1496.466234 401.833791,1494.433791 403.587062,1492.711449 400.769507,1489.690700 398.980155,1487.781420"/>
    <poly id="116689837" type="amenity.place_of_worship" color="237,199,199" fill="1" layer="-1.00" shape="1138.217572,1123.308622 1154.271682,1135.051530 1162.527202,1140.721314 1163.051157,1139.915888 1166.996002,1142.434431 1166.509585,1143.305319 1180.572875,1152.934168 1177.523725,1157.674836 1178.298646,1158.350076 1174.936333,1163.556187 1177.577347,1166.049547 1179.097354,1168.134189 1179.354105,1171.747657 1177.238108,1174.892235 1174.951287,1175.731510 1178.395041,1180.332326 1154.786437,1196.658489 1150.350673,1190.967197 1153.802950,1185.524917 1155.281867,1184.366944 1145.330265,1177.206927 1151.002265,1169.094460 1120.322464,1147.040791 1138.217572,1123.308622"/>
    <poly id="116689837#1" type="building.church" color="255,230,230" fill="1" layer="-1.00" shape="1138.217572,1123.308622 1154.271682,1135.051530 1162.527202,1140.721314 1163.051157,1139.915888 1166.996002,1142.434431 1166.509585,1143.305319 1180.572875,1152.934168 1177.523725,1157.674836 1178.298646,1158.350076 1174.936333,1163.556187 1177.577347,1166.049547 1179.097354,1168.134189 1179.354105,1171.747657 1177.238108,1174.892235 1174.951287,1175.731510 1178.395041,1180.332326 1154.786437,1196.658489 1150.350673,1190.967197 1153.802950,1185.524917 1155.281867,1184.366944 1145.330265,1177.206927 1151.002265,1169.094460 1120.322464,1147.040791 1138.217572,1123.308622"/>
    <poly id="118895597" type="amenity.parking" color="184,184,179" fill="1" layer="-1.00" shape="722.737442,1494.689894 767.586235,1497.971360 767.343047,1501.745181 760.306274,1612.785240 754.134587,1612.981871 746.584399,1599.957848 738.898757,1582.683258 730.578295,1560.229718 726.546409,1542.738733 722.056044,1521.151893 722.636290,1498.748035 722.737442,1494.689894"/>
    <poly id="118900815" type="building.ruins" color="255,230,230" fill="1" layer="-1.00" shape="2344.026579,535.946932 2334.997401,541.387443 2334.576187,542.922734 2336.219116,545.536917 2318.862651,555.906944 2317.224005,553.148210 2315.892913,552.823753 2307.463216,557.878714 2330.918569,606.027484 2343.915557,599.639262 2360.347515,569.868631 2344.026579,535.946932"/>
    <poly id="118900818" type="building.yes" color="255,230,230" fill="1" layer="-1.00" shape="2523.395650,411.091356 2522.383830,404.046846 2522.036626,396.714692 2517.244684,397.677260 2515.068687,384.937267 2513.652806,374.928293 2513.372150,372.781999 2508.645502,373.287031 2507.280486,363.765250 2505.870915,353.956041 2504.248838,337.710255 2507.097628,337.531253 2506.560149,330.349537 2506.117939,324.497903 2505.490457,316.152575 2593.399191,308.761531 2588.835599,262.569698 2650.292140,258.259993 2654.519268,286.532350 2657.073021,286.273857 2658.812280,301.749411 2675.008600,299.237673 2677.192704,300.746113 2698.830509,357.351727 2702.496356,390.307669 2605.950898,401.514590 2590.538555,403.301810 2523.395650,411.091356"/>
    <poly id="119418840" type="amenity.place_of_worship" color="237,199,199" fill="1" layer="-1.00" shape="2058.033608,1161.433354 2066.112687,1173.863964 2078.595260,1161.348148 2069.980304,1150.467583 2058.033608,1161.433354"/>
    <poly id="119418840#1" type="building.temple" color="255,230,230" fill="1" layer="-1.00" shape="2058.033608,1161.433354 2066.112687,1173.863964 2078.595260,1161.348148 2069.980304,1150.467583 2058.033608,1161.433354"/>
    <poly id="119418841" type="amenity.place_of_worship" color="237,199,199" fill="1" layer="-1.00" shape="2058.620459,1133.808377 2066.803427,1144.202712 2070.094174,1143.154118 2072.057817,1144.980439 2078.095066,1140.534248 2087.676337,1151.139789 2089.302427,1152.943485 2093.105254,1157.144431 2100.766490,1165.622329 2095.215221,1170.019773 2087.589054,1176.071604 2086.153592,1177.205805 2083.715779,1174.961253 2078.122833,1178.882335 2079.042217,1181.041706 2079.922662,1183.091219 2078.312565,1184.308722 2076.668103,1185.560641 2078.699278,1189.517789 2075.676420,1191.746574 2077.907922,1194.753090 2082.350748,1192.579279 2084.008928,1191.760184 2086.062963,1196.438707 2070.845618,1204.330902 2046.609054,1167.339012 2034.345026,1150.119713 2050.574181,1134.996617 2058.620459,1133.808377"/>
    <poly id="119418841#1" type="building.temple" color="255,230,230" fill="1" layer="-1.00" shape="2058.620459,1133.808377 2066.803427,1144.202712 2070.094174,1143.154118 2072.057817,1144.980439 2078.095066,1140.534248 2087.676337,1151.139789 2089.302427,1152.943485 2093.105254,1157.144431 2100.766490,1165.622329 2095.215221,1170.019773 2087.589054,1176.071604 2086.153592,1177.205805 2083.715779,1174.961253 2078.122833,1178.882335 2079.042217,1181.041706 2079.922662,1183.091219 2078.312565,1184.308722 2076.668103,1185.560641 2078.699278,1189.517789 2075.676420,1191.746574 2077.907922,1194.753090 2082.350748,1192.579279 2084.008928,1191.760184 2086.062963,1196.438707 2070.845618,1204.330902 2046.609054,1167.339012 2034.345026,1150.119713 2050.574181,1134.996617 2058.620459,1133.808377"/>
    <poly id="119418842" type="amenity.place_of_worship" color="237,199,199" fill="1" layer="-1.00" shape="2038.274899,1131.764918 2035.727450,1131.934551 2031.732050,1132.005669 2030.847487,1127.590029 2028.694256,1114.471663 2026.517328,1101.165193 2031.070734,1100.520923 2030.249745,1093.637024 2030.269162,1090.614704 2031.343862,1088.725396 2033.421828,1087.726347 2035.533570,1087.792711 2037.509726,1089.174260 2038.380981,1091.212952 2039.034496,1092.814179 2041.649804,1093.386714 2043.646595,1095.978513 2045.939407,1100.638351 2050.305322,1130.150418 2044.126819,1130.979506 2043.503456,1127.533195 2038.005737,1128.307379 2038.274899,1131.764918"/>
    <poly id="119418842#1" type="building.church" color="255,230,230" fill="1" layer="-1.00" shape="2038.274899,1131.764918 2035.727450,1131.934551 2031.732050,1132.005669 2030.847487,1127.590029 2028.694256,1114.471663 2026.517328,1101.165193 2031.070734,1100.520923 2030.249745,1093.637024 2030.269162,1090.614704 2031.343862,1088.725396 2033.421828,1087.726347 2035.533570,1087.792711 2037.509726,1089.174260 2038.380981,1091.212952 2039.034496,1092.814179 2041.649804,1093.386714 2043.646595,1095.978513 2045.939407,1100.638351 2050.305322,1130.150418 2044.126819,1130.979506 2043.503456,1127.533195 2038.005737,1128.307379 2038.274899,1131.764918"/>
    <poly id="119418869" type="amenity.place_of_worship" color="237,199,199" fill="1" layer="-1.00" shape="1849.241690,1009.670387 1848.657544,1009.977758 1846.930117,1006.099892 1843.361600,1007.335131 1843.445713,1008.310074 1840.969719,1008.777446 1837.142396,1009.398781 1836.533783,1006.140867 1835.005244,1006.855913 1833.790988,1005.183614 1829.865851,1006.074677 1829.275704,1002.560666 1831.384059,1001.960534 1827.602119,996.748089 1817.565390,1000.021572 1805.905095,1002.691137 1807.661495,1010.834021 1811.131120,1026.876758 1814.388294,1031.194888 1821.956988,1029.199496 1823.628197,1036.334146 1829.563906,1034.834939 1834.803172,1033.735545 1836.411755,1033.029068 1841.489730,1030.757218 1839.878210,1028.297657 1841.387627,1027.538781 1840.731113,1024.726756 1843.098782,1023.918434 1842.116173,1022.283223 1846.865457,1019.988476 1845.698245,1018.681288 1850.790581,1015.464704 1849.241690,1009.670387"/>
    <poly id="119429323" type="amenity.place_of_worship" color="237,199,199" fill="1" layer="-1.00" shape="2128.402590,664.021848 2120.227236,671.501871 2117.597486,674.673555 2120.453262,677.515888 2113.678449,685.273706 2117.084673,688.143032 2118.014697,687.280373 2124.397149,692.877125 2128.261680,695.943007 2133.272249,699.927967 2133.945492,700.473204 2137.367305,703.275388 2139.833431,699.975583 2135.714270,696.706690 2136.361620,695.875208 2134.161261,694.134130 2139.963602,687.018148 2141.397533,685.273008 2138.649312,683.027157 2143.470392,676.275545 2128.402590,664.021848"/>
    <poly id="119429325" type="building.yes" color="255,230,230" fill="1" layer="-1.00" shape="2196.094488,824.448968 2163.719267,855.413930 2170.339222,862.636231 2174.856017,866.148047 2177.664338,868.614185 2187.487440,863.626003 2195.581837,869.824002 2196.989926,870.901421 2200.180619,868.089699 2218.605737,848.387116 2220.210013,846.703247 2215.884665,842.518792 2211.543064,847.055560 2202.269994,837.228855 2204.907801,834.312451 2201.343717,829.815047 2196.094488,824.448968"/>
    <poly id="119429326" type="amenity.place_of_worship" color="237,199,199" fill="1" layer="-1.00" shape="1945.393233,938.465673 1966.259062,939.848117 1969.155036,940.045130 1970.356700,911.967381 1954.782292,909.172899 1942.575293,915.292341 1940.260081,917.476510 1937.179271,920.395947 1941.604079,934.142147 1945.051957,934.132793 1945.393233,938.465673"/>
    <poly id="119429326#1" type="building.church" color="255,230,230" fill="1" layer="-1.00" shape="1945.393233,938.465673 1966.259062,939.848117 1969.155036,940.045130 1970.356700,911.967381 1954.782292,909.172899 1942.575293,915.292341 1940.260081,917.476510 1937.179271,920.395947 1941.604079,934.142147 1945.051957,934.132793 1945.393233,938.465673"/>
    <poly id="119429327" type="amenity.place_of_worship" color="237,199,199" fill="1" layer="-1.00" shape="2027.565588,784.153043 2039.419052,767.991129 2040.157113,766.945688 2037.755183,765.277680 2043.259303,757.426755 2046.540266,759.700126 2049.890435,754.928073 2058.184205,760.697486 2054.332087,765.574319 2057.083826,767.931123 2039.043887,792.509915 2027.565588,784.153043"/>
    <poly id="119429327#1" type="building.yes" color="255,230,230" fill="1" layer="-1.00" shape="2027.565588,784.153043 2039.419052,767.991129 2040.157113,766.945688 2037.755183,765.277680 2043.259303,757.426755 2046.540266,759.700126 2049.890435,754.928073 2058.184205,760.697486 2054.332087,765.574319 2057.083826,767.931123 2039.043887,792.509915 2027.565588,784.153043"/>
    <poly id="119429974" type="amenity.place_of_worship" color="237,199,199" fill="1" layer="-1.00" shape="1949.791839,684.136353 1950.742729,685.050485 1951.438857,684.639590 1953.088163,686.053710 1956.482719,689.112202 1960.066758,692.275779 1949.851457,702.231362 1953.470095,705.927081 1944.316191,715.249121 1939.749508,719.115512 1936.489984,722.551633 1929.965362,727.291089 1915.667423,713.047011 1916.763216,712.101305 1943.630658,685.242668 1925.799176,668.311093 1931.968560,661.872085 1935.559306,665.246516 1933.395561,667.736934 1938.686931,672.746040 1941.381302,668.539088 1953.725987,676.535114 1949.791839,684.136353"/>
    <poly id="119429974#1" type="building.church" color="255,230,230" fill="1" layer="-1.00" shape="1949.791839,684.136353 1950.742729,685.050485 1951.438857,684.639590 1953.088163,686.053710 1956.482719,689.112202 1960.066758,692.275779 1949.851457,702.231362 1953.470095,705.927081 1944.316191,715.249121 1939.749508,719.115512 1936.489984,722.551633 1929.965362,727.291089 1915.667423,713.047011 1916.763216,712.101305 1943.630658,685.242668 1925.799176,668.311093 1931.968560,661.872085 1935.559306,665.246516 1933.395561,667.736934 1938.686931,672.746040 1941.381302,668.539088 1953.725987,676.535114 1949.791839,684.136353"/>
    <poly id="119429975" type="amenity.place_of_worship" color="237,199,199" fill="1" layer="-1.00" shape="1771.991445,976.171894 1776.208764,975.549264 1786.267492,974.085839 1782.985152,963.947277 1782.298065,963.524710 1774.621301,934.739877 1771.065298,933.297423 1767.829812,926.312400 1766.492165,923.266480 1758.809518,926.143160 1760.118640,928.290136 1756.766500,929.640745 1756.284392,927.856348 1753.843343,928.866987 1753.600476,928.197031 1744.770370,930.110307 1746.273304,937.805749 1739.153137,938.853793 1739.585287,940.739758 1728.931456,942.166577 1729.222176,944.623601 1734.920056,944.287240 1736.713624,962.816073 1737.019839,965.761412 1737.074582,966.648414 1743.558906,965.676091 1747.959222,965.791959 1747.835752,964.973793 1751.663193,963.796953 1756.308389,963.249609 1757.098467,966.079610 1766.023076,964.352203 1767.120564,969.327641 1770.284463,968.749546 1771.991445,976.171894"/>
    <poly id="119429976" type="amenity.place_of_worship" color="237,199,199" fill="1" layer="-1.00" shape="2063.696356,1056.249658 2064.214582,1039.880486 2066.033484,1029.868987 2057.397053,1027.543191 2060.365899,1008.507895 2074.442380,1010.194677 2078.060704,996.826715 2084.426860,995.202960 2087.874769,983.728970 2109.937214,982.318754 2114.503544,976.486132 2136.601618,974.241670 2141.936570,991.825103 2146.017622,996.972650 2144.292857,1006.881157 2142.196325,1011.491251 2141.483705,1017.535015 2141.656783,1030.549505 2136.932914,1031.410187 2121.868828,1041.352601 2122.714135,1048.446807 2063.696356,1056.249658"/>
    <poly id="119432043" type="building.church" color="255,230,230" fill="1" layer="-1.00" shape="1889.755878,1409.428272 1919.316483,1409.712602 1920.105232,1418.930459 1926.695411,1418.232622 1925.772276,1409.807782 1926.942869,1409.826199 1927.118691,1410.898217 1935.756312,1409.080070 1941.789692,1429.951800 1944.431667,1445.620885 1943.887964,1451.114977 1942.651974,1454.064795 1939.400882,1463.066398 1937.684933,1462.620908 1938.812551,1459.607871 1934.713025,1458.626975 1935.124786,1457.636303 1928.206907,1455.267275 1924.177836,1456.228263 1919.884640,1456.686608 1919.429419,1457.145416 1920.163416,1463.798779 1938.910375,1464.648356 1938.412931,1469.085605 1939.552938,1471.493477 1944.482231,1481.868680 1943.834374,1482.122521 1939.950729,1482.079061 1940.827503,1484.850777 1943.082622,1491.955810 1943.900281,1494.540544 1932.328998,1498.318090 1930.345766,1493.637356 1932.479154,1492.992008 1931.708932,1490.505753 1933.287995,1489.989081 1930.149834,1481.312329 1918.475662,1480.449500 1918.337753,1484.764255 1925.588355,1484.489832 1925.481312,1490.336681 1901.221880,1491.183968 1900.430312,1489.142762 1900.994549,1489.047099 1899.831947,1486.206688 1904.057053,1486.117097 1904.378163,1479.474701 1899.801436,1479.097749 1874.145964,1477.012123 1873.556618,1471.287347 1878.653135,1440.830787 1879.434467,1440.872655 1885.818316,1418.862717 1890.288467,1419.231936 1890.247618,1414.311843 1888.037494,1414.215315 1889.755878,1409.428272"/>
    <poly id="119432044" type="amenity.place_of_worship" color="237,199,199" fill="1" layer="-1.00" shape="1894.748040,1360.589271 1893.448911,1393.402705 1908.928989,1392.411746 1916.972867,1393.111991 1916.861928,1386.261117 1923.595571,1385.614275 1925.374273,1389.434978 1925.231193,1385.762363 1928.760041,1385.517124 1926.324494,1377.195801 1923.697729,1374.024114 1922.202761,1368.250298 1920.699744,1365.576211 1894.748040,1360.589271"/>
    <poly id="119432044#1" type="building.church" color="255,230,230" fill="1" layer="-1.00" shape="1894.748040,1360.589271 1893.448911,1393.402705 1908.928989,1392.411746 1916.972867,1393.111991 1916.861928,1386.261117 1923.595571,1385.614275 1925.374273,1389.434978 1925.231193,1385.762363 1928.760041,1385.517124 1926.324494,1377.195801 1923.697729,1374.024114 1922.202761,1368.250298 1920.699744,1365.576211 1894.748040,1360.589271"/>
    <poly id="119432045" type="amenity.place_of_worship" color="237,199,199" fill="1" layer="-1.00" shape="1890.599867,1257.482811 1887.522053,1258.535836 1887.068553,1257.372643 1881.643664,1259.322206 1863.755894,1265.733115 1868.317693,1276.253256 1872.529744,1283.851659 1878.903186,1296.436196 1888.899539,1291.342123 1887.677691,1288.870197 1886.579054,1286.649874 1890.696918,1284.852866 1890.158796,1283.536828 1886.652502,1274.993965 1890.894287,1273.470757 1894.048973,1272.326421 1893.268626,1268.962860 1892.386352,1265.180382 1891.420564,1261.000620 1890.599867,1257.482811"/>
    <poly id="119432045#1" type="building.church" color="255,230,230" fill="1" layer="-1.00" shape="1890.599867,1257.482811 1887.522053,1258.535836 1887.068553,1257.372643 1881.643664,1259.322206 1863.755894,1265.733115 1868.317693,1276.253256 1872.529744,1283.851659 1878.903186,1296.436196 1888.899539,1291.342123 1887.677691,1288.870197 1886.579054,1286.649874 1890.696918,1284.852866 1890.158796,1283.536828 1886.652502,1274.993965 1890.894287,1273.470757 1894.048973,1272.326421 1893.268626,1268.962860 1892.386352,1265.180382 1891.420564,1261.000620 1890.599867,1257.482811"/>
    <poly id="119432065" type="building.church" color="255,230,230" fill="1" layer="-1.00" shape="1901.239515,1423.561532 1911.835300,1424.236366 1910.739956,1414.295025 1901.326015,1413.993743 1901.239515,1423.561532"/>
    <poly id="119432066" type="building.church" color="255,230,230" fill="1" layer="-1.00" shape="1880.067871,1464.470787 1884.739491,1439.060194 1897.758756,1439.013792 1899.483768,1466.010045 1880.067871,1464.470787"/>
    <poly id="119440321" type="amenity.place_of_worship" color="237,199,199" fill="1" layer="-1.00" shape="2058.638740,1424.058058 2073.424191,1431.354673 2086.495801,1433.239909 2090.518991,1428.457620 2092.385251,1424.976827 2092.378223,1423.077375 2091.095233,1420.351852 2091.181214,1417.471842 2084.291337,1413.468745 2087.126356,1408.113113 2076.468968,1402.418647 2073.691715,1407.639141 2061.932159,1401.568592 2059.165182,1401.800730 2057.799255,1404.288060 2056.684900,1404.645555 2056.158009,1405.639869 2056.397146,1407.032048 2055.114080,1409.616734 2053.759180,1410.215148 2053.199335,1411.288272 2053.595630,1411.486784 2053.236337,1412.175836 2053.759062,1412.448104 2053.329869,1413.728160 2053.651044,1415.750964 2054.847905,1417.157217 2054.459174,1418.036059 2056.704650,1420.086731 2056.832896,1421.615736 2057.462346,1423.017760 2058.638740,1424.058058"/>
    <poly id="119440321#1" type="building.church" color="255,230,230" fill="1" layer="-1.00" shape="2058.638740,1424.058058 2073.424191,1431.354673 2086.495801,1433.239909 2090.518991,1428.457620 2092.385251,1424.976827 2092.378223,1423.077375 2091.095233,1420.351852 2091.181214,1417.471842 2084.291337,1413.468745 2087.126356,1408.113113 2076.468968,1402.418647 2073.691715,1407.639141 2061.932159,1401.568592 2059.165182,1401.800730 2057.799255,1404.288060 2056.684900,1404.645555 2056.158009,1405.639869 2056.397146,1407.032048 2055.114080,1409.616734 2053.759180,1410.215148 2053.199335,1411.288272 2053.595630,1411.486784 2053.236337,1412.175836 2053.759062,1412.448104 2053.329869,1413.728160 2053.651044,1415.750964 2054.847905,1417.157217 2054.459174,1418.036059 2056.704650,1420.086731 2056.832896,1421.615736 2057.462346,1423.017760 2058.638740,1424.058058"/>
    <poly id="119550325" type="amenity.place_of_worship" color="237,199,199" fill="1" layer="-1.00" shape="2141.438339,872.039378 2153.436273,883.934862 2139.453290,893.876290 2141.028619,902.469322 2134.286816,904.549298 2136.214033,915.575201 2119.938218,927.566761 2111.883145,930.721530 2109.655106,919.994002 2106.423584,918.718873 2103.591783,891.457781 2102.941254,886.034892 2110.196701,882.261126 2130.766183,878.765337 2141.438339,872.039378"/>
    <poly id="119550325#1" type="building.church" color="255,230,230" fill="1" layer="-1.00" shape="2141.438339,872.039378 2153.436273,883.934862 2139.453290,893.876290 2141.028619,902.469322 2134.286816,904.549298 2136.214033,915.575201 2119.938218,927.566761 2111.883145,930.721530 2109.655106,919.994002 2106.423584,918.718873 2103.591783,891.457781 2102.941254,886.034892 2110.196701,882.261126 2130.766183,878.765337 2141.438339,872.039378"/>
    <poly id="119550326" type="amenity.place_of_worship" color="237,199,199" fill="1" layer="-1.00" shape="2198.080476,774.094787 2175.110168,795.829964 2195.311606,818.763650 2201.094450,812.992533 2202.559415,814.745812 2208.140788,810.169766 2213.298650,815.449874 2223.673849,806.900426 2216.743947,798.288145 2218.132387,795.666834 2213.139322,789.992681 2198.080476,774.094787"/>
    <poly id="119550326#1" type="building.church" color="255,230,230" fill="1" layer="-1.00" shape="2198.080476,774.094787 2175.110168,795.829964 2195.311606,818.763650 2201.094450,812.992533 2202.559415,814.745812 2208.140788,810.169766 2213.298650,815.449874 2223.673849,806.900426 2216.743947,798.288145 2218.132387,795.666834 2213.139322,789.992681 2198.080476,774.094787"/>
    <poly id="119550327" type="amenity.place_of_worship" color="237,199,199" fill="1" layer="-1.00" shape="2181.286271,892.284199 2207.341372,917.287604 2197.883977,929.340731 2201.573055,933.867498 2187.765252,947.658186 2197.569891,972.587629 2207.005627,992.029719 2201.452646,996.938154 2204.575088,1008.481658 2198.956853,1010.770395 2202.986889,1018.785752 2200.115918,1019.376621 2194.972616,1020.428305 2191.090141,1011.475104 2188.612750,1005.743490 2183.514576,1007.660266 2186.114278,1014.454487 2175.368601,1019.694101 2169.903721,999.126398 2175.501340,995.627393 2170.506272,988.209192 2146.572082,997.966016 2133.735966,960.734827 2132.885114,956.262566 2137.279905,952.568361 2133.062194,947.025216 2140.731904,940.661013 2130.988442,927.738718 2181.286271,892.284199"/>
    <poly id="119556950" type="amenity.place_of_worship" color="237,199,199" fill="1" layer="-1.00" shape="1680.609337,1382.959984 1680.509792,1380.941260 1679.372549,1355.170571 1673.434810,1355.481281 1672.636427,1338.709438 1679.078905,1338.382704 1678.810175,1333.547602 1687.843616,1333.027528 1702.037296,1332.554730 1702.804327,1354.204526 1697.053246,1354.531513 1698.221649,1382.123128 1680.609337,1382.959984"/>
    <poly id="119556950#1" type="building.church" color="255,230,230" fill="1" layer="-1.00" shape="1680.609337,1382.959984 1680.509792,1380.941260 1679.372549,1355.170571 1673.434810,1355.481281 1672.636427,1338.709438 1679.078905,1338.382704 1678.810175,1333.547602 1687.843616,1333.027528 1702.037296,1332.554730 1702.804327,1354.204526 1697.053246,1354.531513 1698.221649,1382.123128 1680.609337,1382.959984"/>
    <poly id="119558039" type="amenity.place_of_worship" color="237,199,199" fill="1" layer="-1.00" shape="2732.576481,1123.580701 2737.660559,1126.263887 2779.141995,1099.856918 2753.383665,1074.631466 2716.058015,1097.352227 2732.576481,1123.580701"/>
    <poly id="119558041" type="amenity.college" color="237,199,199" fill="1" layer="-1.00" shape="2685.548394,1012.143478 2688.869083,1012.038468 2752.875933,1073.992080 2715.525119,1096.758075 2710.564249,1088.160948 2673.308016,1023.661917 2674.122230,1019.136969 2685.548394,1012.143478"/>
    <poly id="119558043" type="building.yes" color="255,230,230" fill="1" layer="-1.00" shape="2742.028116,1065.914332 2711.546930,1085.319265 2716.507800,1093.916393 2750.922548,1073.887201 2742.028116,1065.914332"/>
    <poly id="119558183" type="leisure.pitch" color="207,245,201" fill="1" layer="-2.00" shape="2695.781206,1059.633585 2707.378381,1052.723584 2718.380849,1071.016799 2706.774838,1077.927065 2695.781206,1059.633585"/>
    <poly id="119560959" type="building.civic" color="255,230,230" fill="1" layer="-1.00" shape="1869.010340,538.534550 1881.437193,544.361588 1875.534701,556.702264 1863.112437,551.019511 1869.010340,538.534550"/>
    <poly id="119560960" type="building.civic" color="255,230,230" fill="1" layer="-1.00" shape="1849.161854,539.075215 1855.260614,526.494999 1867.054218,531.919953 1860.857218,545.036517 1849.161854,539.075215"/>
    <poly id="119560964" type="building.civic" color="255,230,230" fill="1" layer="-1.00" shape="1859.098486,520.329860 1872.606067,526.411449 1877.273643,528.518586 1881.191000,530.449552 1882.523445,527.741084 1884.362301,523.950071 1903.995163,533.381291 1888.722377,566.115674 1883.326723,578.784658 1866.308139,571.003613 1864.027467,570.087229 1862.857736,574.012555 1855.457293,572.103200 1852.532841,570.174081 1853.094194,568.867607 1851.065000,568.054341 1845.932275,568.050507 1843.593372,567.813637 1839.550171,566.386595 1834.940721,564.155435 1845.548112,542.244873 1846.787098,542.738816 1848.499083,539.140674 1834.777070,531.888348 1837.202881,526.201247 1837.623138,525.476927 1852.081647,532.472604 1854.130618,528.319424 1858.393658,519.907846 1859.098486,520.329860"/>
    <poly id="119564800" type="building.yes" color="255,230,230" fill="1" layer="-1.00" shape="2256.591670,1198.278417 2260.252557,1201.639628 2263.630499,1204.743183 2271.454398,1211.927401 2282.291116,1221.882368 2300.621621,1222.723769 2313.325238,1218.299915 2316.150444,1261.047429 2319.451263,1275.151531 2312.576903,1275.835828 2312.891479,1285.768580 2296.508790,1286.531848 2293.977504,1275.736133 2288.878078,1277.608461 2287.686465,1278.046134 2281.304028,1265.717134 2257.660560,1277.353056 2245.783625,1262.820765 2250.157256,1258.182996 2245.499249,1252.164955 2249.820109,1247.539968 2251.766770,1241.557107 2242.482992,1229.420020 2241.863693,1228.617559 2244.359693,1225.705647 2246.667566,1223.010771 2240.540757,1218.194615 2256.591670,1198.278417"/>
    <poly id="119564800#1" type="historic.monument" color="128,255,128" fill="1" layer="-1.00" shape="2256.591670,1198.278417 2260.252557,1201.639628 2263.630499,1204.743183 2271.454398,1211.927401 2282.291116,1221.882368 2300.621621,1222.723769 2313.325238,1218.299915 2316.150444,1261.047429 2319.451263,1275.151531 2312.576903,1275.835828 2312.891479,1285.768580 2296.508790,1286.531848 2293.977504,1275.736133 2288.878078,1277.608461 2287.686465,1278.046134 2281.304028,1265.717134 2257.660560,1277.353056 2245.783625,1262.820765 2250.157256,1258.182996 2245.499249,1252.164955 2249.820109,1247.539968 2251.766770,1241.557107 2242.482992,1229.420020 2241.863693,1228.617559 2244.359693,1225.705647 2246.667566,1223.010771 2240.540757,1218.194615 2256.591670,1198.278417"/>
    <poly id="119564800#2" type="tourism.museum" color="207,245,201" fill="1" layer="-2.00" shape="2256.591670,1198.278417 2260.252557,1201.639628 2263.630499,1204.743183 2271.454398,1211.927401 2282.291116,1221.882368 2300.621621,1222.723769 2313.325238,1218.299915 2316.150444,1261.047429 2319.451263,1275.151531 2312.576903,1275.835828 2312.891479,1285.768580 2296.508790,1286.531848 2293.977504,1275.736133 2288.878078,1277.608461 2287.686465,1278.046134 2281.304028,1265.717134 2257.660560,1277.353056 2245.783625,1262.820765 2250.157256,1258.182996 2245.499249,1252.164955 2249.820109,1247.539968 2251.766770,1241.557107 2242.482992,1229.420020 2241.863693,1228.617559 2244.359693,1225.705647 2246.667566,1223.010771 2240.540757,1218.194615 2256.591670,1198.278417"/>