<?xml version="1.0" encoding="UTF-8"?>

<!-- generated on 2021-10-31 22:32:58 by Eclipse SUMO duarouter Version 1.10.0
<configuration xmlns:xsi="http://www.w3.org/2001/XMLSchema-instance" xsi:noNamespaceSchemaLocation="http://sumo.dlr.de/xsd/duarouterConfiguration.xsd">

    <input>
        <net-file value="C:\Users\juane\Sumo\2021-10-31-22-32-17\osm.net.xml"/>
        <route-files value="C:\Users\juane\Sumo\2021-10-31-22-32-17\osm.bicycle.trips.xml"/>
    </input>

    <output>
        <output-file value="C:\Users\juane\Sumo\2021-10-31-22-32-17\osm.bicycle.trips.xml.tmp"/>
        <write-trips value="true"/>
    </output>

    <time>
        <begin value="0"/>
        <end value="3600"/>
    </time>

    <report>
        <no-warnings value="true"/>
        <ignore-errors value="true"/>
        <no-step-log value="true"/>
    </report>

</configuration>
-->

<routes xmlns:xsi="http://www.w3.org/2001/XMLSchema-instance" xsi:noNamespaceSchemaLocation="http://sumo.dlr.de/xsd/routes_file.xsd">
    <vType id="bike_bicycle" vClass="bicycle"/>
    <trip id="bike0" type="bike_bicycle" depart="0.00" departLane="best" from="31283833" to="-18545389#1"/>
    <trip id="bike1" type="bike_bicycle" depart="4.17" departLane="best" from="113880131#0" to="116395149#5"/>
    <trip id="bike2" type="bike_bicycle" depart="8.34" departLane="best" from="333557339#0" to="346472116#3"/>
    <trip id="bike3" type="bike_bicycle" depart="12.51" departLane="best" departSpeed="max" from="55441114" to="-32596018#0"/>
    <trip id="bike4" type="bike_bicycle" depart="16.68" departLane="best" from="19804770" to="-191200292#4"/>
    <trip id="bike5" type="bike_bicycle" depart="20.85" departLane="best" departSpeed="max" from="-796584309" to="28115679#2"/>
    <trip id="bike6" type="bike_bicycle" depart="25.02" departLane="best" from="-191200292#1" to="-736610164#0"/>
    <trip id="bike8" type="bike_bicycle" depart="33.36" departLane="best" departSpeed="max" from="-796584310" to="31321238"/>
    <trip id="bike9" type="bike_bicycle" depart="37.53" departLane="best" from="37565661#2" to="-129042967#0"/>
    <trip id="bike10" type="bike_bicycle" depart="41.70" departLane="best" from="37530635#0" to="366817716"/>
    <trip id="bike11" type="bike_bicycle" depart="45.87" departLane="best" from="18979260" to="-50001927#1"/>
    <trip id="bike13" type="bike_bicycle" depart="54.21" departLane="best" from="-32596018#15" to="-32596018#5"/>
    <trip id="bike14" type="bike_bicycle" depart="58.38" departLane="best" from="426768411#1" to="32508332#1"/>
    <trip id="bike15" type="bike_bicycle" depart="62.55" departLane="best" from="37532039" to="37378897#0"/>
    <trip id="bike16" type="bike_bicycle" depart="66.72" departLane="best" from="274571001" to="796584348"/>
    <trip id="bike17" type="bike_bicycle" depart="70.89" departLane="best" from="19210168#5" to="29550101#0"/>
    <trip id="bike18" type="bike_bicycle" depart="75.06" departLane="best" from="380824802" to="328816036"/>
    <trip id="bike19" type="bike_bicycle" depart="79.23" departLane="best" from="444302003#0" to="31286586#0"/>
    <trip id="bike20" type="bike_bicycle" depart="83.40" departLane="best" from="331354686#2" to="-206080260#0"/>
    <trip id="bike21" type="bike_bicycle" depart="87.57" departLane="best" departSpeed="max" from="-796584317" to="191200292#8"/>
    <trip id="bike22" type="bike_bicycle" depart="91.74" departLane="best" from="-29550074#0" to="129041969#1"/>
    <trip id="bike23" type="bike_bicycle" depart="95.91" departLane="best" from="-32596018#6" to="18979260"/>
    <trip id="bike24" type="bike_bicycle" depart="100.08" departLane="best" from="31236760#1" to="19804778#1"/>
    <trip id="bike25" type="bike_bicycle" depart="104.24" departLane="best" from="19124201" to="-893655088#0"/>
    <trip id="bike26" type="bike_bicycle" depart="108.41" departLane="best" from="-814351068#5" to="796584314"/>
    <trip id="bike27" type="bike_bicycle" depart="112.58" departLane="best" from="31286577#0" to="32596018#17"/>
    <trip id="bike28" type="bike_bicycle" depart="116.75" departLane="best" from="-597786474#1" to="37376927"/>
    <trip id="bike30" type="bike_bicycle" depart="125.09" departLane="best" from="892407195#1" to="331354694#3"/>
    <trip id="bike31" type="bike_bicycle" depart="129.26" departLane="best" from="28114058#1" to="35784928"/>
    <trip id="bike32" type="bike_bicycle" depart="133.43" departLane="best" from="426730818#3" to="426730818#3"/>
    <trip id="bike33" type="bike_bicycle" depart="137.60" departLane="best" departSpeed="max" from="-796584318" to="-191200292#8"/>
    <trip id="bike34" type="bike_bicycle" depart="141.77" departLane="best" from="163394257#0" to="18940336#1"/>
    <trip id="bike35" type="bike_bicycle" depart="145.94" departLane="best" departSpeed="max" from="-786019229" to="796584320"/>
    <trip id="bike36" type="bike_bicycle" depart="150.11" departLane="best" from="50001925#1" to="19210168#2"/>
    <trip id="bike39" type="bike_bicycle" depart="162.62" departLane="best" from="-814351068#1" to="140216572"/>
    <trip id="bike40" type="bike_bicycle" depart="166.79" departLane="best" from="28115244#5" to="18546016"/>
    <trip id="bike41" type="bike_bicycle" depart="170.96" departLane="best" from="28117513#0" to="67462545"/>
    <trip id="bike42" type="bike_bicycle" depart="175.13" departLane="best" from="19790070#0" to="113929820#3"/>
    <trip id="bike44" type="bike_bicycle" depart="183.47" departLane="best" from="-32596018#11" to="-207307419#1"/>
    <trip id="bike45" type="bike_bicycle" depart="187.64" departLane="best" from="-331354698#1" to="331354676#0"/>
    <trip id="bike46" type="bike_bicycle" depart="191.81" departLane="best" from="373489785#0" to="23646774#6"/>
    <trip id="bike48" type="bike_bicycle" depart="200.15" departLane="best" departSpeed="max" from="940309790" to="286090200#1"/>
    <trip id="bike49" type="bike_bicycle" depart="204.32" departLane="best" from="780953379" to="638996002"/>
    <trip id="bike50" type="bike_bicycle" depart="208.49" departLane="best" from="-129042970#9" to="367627833#1"/>
    <trip id="bike51" type="bike_bicycle" depart="212.66" departLane="best" from="32596018#14" to="29471957"/>
    <trip id="bike52" type="bike_bicycle" depart="216.83" departLane="best" from="-814351068#5" to="331354694#5"/>
    <trip id="bike53" type="bike_bicycle" depart="221.00" departLane="best" from="-331354698#5" to="237655241#1"/>
    <trip id="bike54" type="bike_bicycle" depart="225.17" departLane="best" from="22743745#1" to="796584330"/>
    <trip id="bike56" type="bike_bicycle" depart="233.51" departLane="best" from="238193527#1" to="-639625555#0"/>
    <trip id="bike57" type="bike_bicycle" depart="237.68" departLane="best" from="597786483#0" to="67332791#2"/>
    <trip id="bike58" type="bike_bicycle" depart="241.85" departLane="best" from="129041969#1" to="331354693#3"/>
    <trip id="bike59" type="bike_bicycle" depart="246.02" departLane="best" from="29550040#2" to="-494999660"/>
    <trip id="bike60" type="bike_bicycle" depart="250.19" departLane="best" departSpeed="max" from="366702324#0" to="29550032#2"/>
    <trip id="bike62" type="bike_bicycle" depart="258.53" departLane="best" departSpeed="max" from="-102882447" to="19210180#3"/>
    <trip id="bike63" type="bike_bicycle" depart="262.70" departLane="best" departSpeed="max" from="-163400032" to="796584307"/>
    <trip id="bike64" type="bike_bicycle" depart="266.87" departLane="best" from="50001927#1" to="54905955#1"/>
    <trip id="bike65" type="bike_bicycle" depart="271.04" departLane="best" from="129089161#1" to="-260077619#0"/>
    <trip id="bike66" type="bike_bicycle" depart="275.21" departLane="best" from="50001927#0" to="796584323"/>
    <trip id="bike67" type="bike_bicycle" depart="279.38" departLane="best" from="-31290865#0" to="28111690#0"/>
    <trip id="bike68" type="bike_bicycle" depart="283.55" departLane="best" from="-28111975" to="37588746"/>
    <trip id="bike69" type="bike_bicycle" depart="287.72" departLane="best" from="366848251#0" to="-373489788#1"/>
    <trip id="bike70" type="bike_bicycle" depart="291.89" departLane="best" from="23646771#0" to="29550067#3"/>
    <trip id="bike71" type="bike_bicycle" depart="296.06" departLane="best" from="-814351068#1" to="67332801#1"/>
    <trip id="bike72" type="bike_bicycle" depart="300.23" departLane="best" from="19804776#1" to="102882447"/>
    <trip id="bike73" type="bike_bicycle" depart="304.40" departLane="best" departSpeed="max" from="28026211" to="37378897#0"/>
    <trip id="bike74" type="bike_bicycle" depart="308.57" departLane="best" from="-67377872#2" to="191697530#0"/>
    <trip id="bike75" type="bike_bicycle" depart="312.73" departLane="best" from="929822151#0" to="332019191#5"/>
    <trip id="bike76" type="bike_bicycle" depart="316.90" departLane="best" departSpeed="max" from="219896193#0" to="28117009#1"/>
    <trip id="bike77" type="bike_bicycle" depart="321.07" departLane="best" from="-338940730#4" to="122269872#0"/>
    <trip id="bike78" type="bike_bicycle" depart="325.24" departLane="best" from="18978883#1" to="31321183#0"/>
    <trip id="bike79" type="bike_bicycle" depart="329.41" departLane="best" departSpeed="max" from="-796584319" to="116395149#0"/>
    <trip id="bike80" type="bike_bicycle" depart="333.58" departLane="best" from="-28114058#2" to="331354685"/>
    <trip id="bike81" type="bike_bicycle" depart="337.75" departLane="best" departSpeed="max" from="-796584318" to="736610164#0"/>
    <trip id="bike83" type="bike_bicycle" depart="346.09" departLane="best" departSpeed="max" from="-796584326" to="335221286#0"/>
    <trip id="bike84" type="bike_bicycle" depart="350.26" departLane="best" departSpeed="max" from="-796584304" to="-37526924#3"/>
    <trip id="bike85" type="bike_bicycle" depart="354.43" departLane="best" from="67332809#0" to="31284810#0"/>
    <trip id="bike86" type="bike_bicycle" depart="358.60" departLane="best" from="23646763#2" to="42959260#2"/>
    <trip id="bike87" type="bike_bicycle" depart="362.77" departLane="best" from="37532039" to="-67377872#1"/>
    <trip id="bike88" type="bike_bicycle" depart="366.94" departLane="best" from="-32596018#25" to="23646779#9"/>
    <trip id="bike89" type="bike_bicycle" depart="371.11" departLane="best" from="19804776#1" to="261491872"/>
    <trip id="bike90" type="bike_bicycle" depart="375.28" departLane="best" from="332019207#4" to="338944243#2"/>
    <trip id="bike91" type="bike_bicycle" depart="379.45" departLane="best" from="814351068#2" to="-32596018#9"/>
    <trip id="bike92" type="bike_bicycle" depart="383.62" departLane="best" from="19802241#0" to="19802240#0"/>
    <trip id="bike93" type="bike_bicycle" depart="387.79" departLane="best" from="444302003#0" to="147216225"/>
    <trip id="bike94" type="bike_bicycle" depart="391.96" departLane="best" from="-67332803" to="239209576"/>
    <trip id="bike95" type="bike_bicycle" depart="396.13" departLane="best" from="19804770" to="190722647"/>
    <trip id="bike97" type="bike_bicycle" depart="404.47" departLane="best" from="22295875#0" to="639346211#0"/>
    <trip id="bike99" type="bike_bicycle" depart="412.81" departLane="best" from="976693854#0" to="56767124"/>
    <trip id="bike100" type="bike_bicycle" depart="416.98" departLane="best" from="761014854" to="796584304"/>
    <trip id="bike102" type="bike_bicycle" depart="425.32" departLane="best" from="23646776#2" to="113880132#0"/>
    <trip id="bike103" type="bike_bicycle" depart="429.49" departLane="best" from="19802240#0" to="-260077619#1"/>
    <trip id="bike105" type="bike_bicycle" depart="437.83" departLane="best" from="-814351068#1" to="42959260#1"/>
    <trip id="bike106" type="bike_bicycle" depart="442.00" departLane="best" from="22743745#3" to="23646775#1"/>
    <trip id="bike109" type="bike_bicycle" depart="454.51" departLane="best" departSpeed="max" from="-426758020" to="19124182"/>
    <trip id="bike110" type="bike_bicycle" depart="458.68" departLane="best" from="761014854" to="31286612#0"/>
    <trip id="bike111" type="bike_bicycle" depart="462.85" departLane="best" departSpeed="max" from="28026682" to="37567711#3"/>
    <trip id="bike112" type="bike_bicycle" depart="467.02" departLane="best" from="-237277456" to="31290865#0"/>
    <trip id="bike114" type="bike_bicycle" depart="475.36" departLane="best" from="-49060172#0" to="796584336"/>
    <trip id="bike115" type="bike_bicycle" depart="479.53" departLane="best" from="-29550074#1" to="-67332820#2"/>
    <trip id="bike117" type="bike_bicycle" depart="487.87" departLane="best" departSpeed="max" from="-796584324" to="-35784922#1"/>
    <trip id="bike118" type="bike_bicycle" depart="492.04" departLane="best" from="54905947#1" to="139897198"/>
    <trip id="bike120" type="bike_bicycle" depart="500.38" departLane="best" from="19804766#2" to="31287022#1"/>
    <trip id="bike121" type="bike_bicycle" depart="504.55" departLane="best" from="256163529" to="796584312"/>
    <trip id="bike122" type="bike_bicycle" depart="508.72" departLane="best" departSpeed="max" from="-70083833#1" to="367122295#2"/>
    <trip id="bike123" type="bike_bicycle" depart="512.89" departLane="best" departSpeed="max" from="-796584327" to="22743745#0"/>
    <trip id="bike124" type="bike_bicycle" depart="517.06" departLane="best" from="31648546#1" to="19124186"/>
    <trip id="bike125" type="bike_bicycle" depart="521.22" departLane="best" from="163394257#1" to="37568728"/>
    <trip id="bike127" type="bike_bicycle" depart="529.56" departLane="best" from="976693852" to="975953418#8"/>
    <trip id="bike128" type="bike_bicycle" depart="533.73" departLane="best" from="-28115702#3" to="113880131#3"/>
    <trip id="bike129" type="bike_bicycle" depart="537.90" departLane="best" from="-814351068#1" to="796584311"/>
    <trip id="bike130" type="bike_bicycle" depart="542.07" departLane="best" from="508362482" to="67332820#0"/>
    <trip id="bike131" type="bike_bicycle" depart="546.24" departLane="best" from="19124197#2" to="-510585240"/>
    <trip id="bike132" type="bike_bicycle" depart="550.41" departLane="best" from="406432859#2" to="366848294#1"/>
    <trip id="bike133" type="bike_bicycle" depart="554.58" departLane="best" from="29550048#2" to="893087110"/>
    <trip id="bike134" type="bike_bicycle" depart="558.75" departLane="best" from="31286698" to="-129042970#0"/>
    <trip id="bike135" type="bike_bicycle" depart="562.92" departLane="best" from="37568321#1" to="19124185#3"/>
    <trip id="bike136" type="bike_bicycle" depart="567.09" departLane="best" from="31321653#1" to="796584316"/>
    <trip id="bike137" type="bike_bicycle" depart="571.26" departLane="best" departSpeed="max" from="-367117200#1" to="-338940730#5"/>
    <trip id="bike138" type="bike_bicycle" depart="575.43" departLane="best" from="-331354696#0" to="29550104"/>
    <trip id="bike139" type="bike_bicycle" depart="579.60" departLane="best" departSpeed="max" from="-929827887" to="32508332#2"/>
    <trip id="bike140" type="bike_bicycle" depart="583.77" departLane="best" from="331354698#4" to="-814348052"/>
    <trip id="bike141" type="bike_bicycle" depart="587.94" departLane="best" from="310425662#1" to="18613820"/>
    <trip id="bike143" type="bike_bicycle" depart="596.28" departLane="best" departSpeed="max" from="426757102" to="-32596018#2"/>
    <trip id="bike144" type="bike_bicycle" depart="600.45" departLane="best" from="19804776#1" to="18979198"/>
    <trip id="bike145" type="bike_bicycle" depart="604.62" departLane="best" from="-125600516#2" to="406432859#2"/>
    <trip id="bike146" type="bike_bicycle" depart="608.79" departLane="best" from="31283635#1" to="18545389#2"/>
    <trip id="bike147" type="bike_bicycle" depart="612.96" departLane="best" from="338940730#5" to="29550101#0"/>
    <trip id="bike148" type="bike_bicycle" depart="617.13" departLane="best" departSpeed="max" from="19804786" to="-129042970#10"/>
    <trip id="bike151" type="bike_bicycle" depart="629.64" departLane="best" from="406432859#3" to="31286793"/>
    <trip id="bike152" type="bike_bicycle" depart="633.81" departLane="best" departSpeed="max" from="-37588748" to="-373489782#1"/>
    <trip id="bike153" type="bike_bicycle" depart="637.98" departLane="best" from="129089161#5" to="67661819"/>
    <trip id="bike154" type="bike_bicycle" depart="642.15" departLane="best" from="37376927" to="638996002"/>
    <trip id="bike155" type="bike_bicycle" depart="646.32" departLane="best" from="57775972" to="-893655088#2"/>
    <trip id="bike156" type="bike_bicycle" depart="650.49" departLane="best" departSpeed="max" from="-796584337" to="-331354696#0"/>
    <trip id="bike157" type="bike_bicycle" depart="654.66" departLane="best" from="367122295#0" to="67377792#1"/>
    <trip id="bike158" type="bike_bicycle" depart="658.83" departLane="best" from="19802253" to="330962460#0"/>
    <trip id="bike159" type="bike_bicycle" depart="663.00" departLane="best" departSpeed="max" from="-426758020" to="796584308"/>
    <trip id="bike160" type="bike_bicycle" depart="667.17" departLane="best" departSpeed="max" from="457010454" to="814351060#4"/>
    <trip id="bike161" type="bike_bicycle" depart="671.34" departLane="best" from="37566434#1" to="67332820#4"/>
    <trip id="bike162" type="bike_bicycle" depart="675.51" departLane="best" departSpeed="max" from="-18979198" to="37526924#1"/>
    <trip id="bike164" type="bike_bicycle" depart="683.85" departLane="best" from="37526921#0" to="643161233#1"/>
    <trip id="bike165" type="bike_bicycle" depart="688.02" departLane="best" from="37566262" to="18937742"/>
    <trip id="bike166" type="bike_bicycle" depart="692.19" departLane="best" from="371334484" to="-332019207#2"/>
    <trip id="bike168" type="bike_bicycle" depart="700.53" departLane="best" departSpeed="max" from="-796584312" to="50001926"/>
    <trip id="bike169" type="bike_bicycle" depart="704.70" departLane="best" from="22744025#2" to="19124197#1"/>
    <trip id="bike170" type="bike_bicycle" depart="708.87" departLane="best" from="37375825#0" to="125600516#2"/>
    <trip id="bike171" type="bike_bicycle" depart="713.04" departLane="best" departSpeed="max" from="-18616774" to="-67661819"/>
    <trip id="bike173" type="bike_bicycle" depart="721.38" departLane="best" from="74686102" to="19095795"/>
    <trip id="bike174" type="bike_bicycle" depart="725.55" departLane="best" from="31284810#0" to="22743996#1"/>
    <trip id="bike175" type="bike_bicycle" depart="729.71" departLane="best" from="814351060#0" to="29471930#2"/>
    <trip id="bike176" type="bike_bicycle" depart="733.88" departLane="best" from="67332820#4" to="-338940730#5"/>
    <trip id="bike177" type="bike_bicycle" depart="738.05" departLane="best" from="762427104" to="-639625555#0"/>
    <trip id="bike178" type="bike_bicycle" depart="742.22" departLane="best" from="736610164#0" to="18616774"/>
    <trip id="bike179" type="bike_bicycle" depart="746.39" departLane="best" departSpeed="max" from="-331354696#2" to="237655241#1"/>
    <trip id="bike180" type="bike_bicycle" depart="750.56" departLane="best" from="332019207#2" to="19210166#2"/>
    <trip id="bike182" type="bike_bicycle" depart="758.90" departLane="best" from="19210180#0" to="31286577#1"/>
    <trip id="bike183" type="bike_bicycle" depart="763.07" departLane="best" departSpeed="max" from="-796584342" to="367117199#1"/>
    <trip id="bike184" type="bike_bicycle" depart="767.24" departLane="best" from="-113880132#1" to="796584304"/>
    <trip id="bike185" type="bike_bicycle" depart="771.41" departLane="best" from="28023777#1" to="367132929#0"/>
    <trip id="bike186" type="bike_bicycle" depart="775.58" departLane="best" from="338944243#1" to="335907670#0"/>
    <trip id="bike187" type="bike_bicycle" depart="779.75" departLane="best" from="19124187" to="-28604425#1"/>
    <trip id="bike190" type="bike_bicycle" depart="792.26" departLane="best" from="332019191#2" to="19124187"/>
    <trip id="bike191" type="bike_bicycle" depart="796.43" departLane="best" from="129089161#7" to="236186036"/>
    <trip id="bike192" type="bike_bicycle" depart="800.60" departLane="best" from="19802241#0" to="19124180#0"/>
    <trip id="bike193" type="bike_bicycle" depart="804.77" departLane="best" from="-366175336#1" to="23646774#3"/>
    <trip id="bike194" type="bike_bicycle" depart="808.94" departLane="best" from="67377792#0" to="346472116#5"/>
    <trip id="bike196" type="bike_bicycle" depart="817.28" departLane="best" from="129042970#10" to="29550058"/>
    <trip id="bike197" type="bike_bicycle" depart="821.45" departLane="best" departSpeed="max" from="-102882447" to="191200292#3"/>
    <trip id="bike198" type="bike_bicycle" depart="825.62" departLane="best" from="19804797#1" to="31286612#4"/>
    <trip id="bike200" type="bike_bicycle" depart="833.96" departLane="best" from="22295873" to="113880132#0"/>
    <trip id="bike201" type="bike_bicycle" depart="838.13" departLane="best" from="23646765#0" to="68259038"/>
    <trip id="bike203" type="bike_bicycle" depart="846.47" departLane="best" departSpeed="max" from="-31285760" to="28116816"/>
    <trip id="bike205" type="bike_bicycle" depart="854.81" departLane="best" from="37568322#2" to="37568322#1"/>
    <trip id="bike206" type="bike_bicycle" depart="858.98" departLane="best" departSpeed="max" from="31648547" to="122269872#0"/>
    <trip id="bike207" type="bike_bicycle" depart="863.15" departLane="best" from="-67377811" to="-18545389#0"/>
    <trip id="bike208" type="bike_bicycle" depart="867.32" departLane="best" departSpeed="max" from="-796584333" to="28023777#1"/>
    <trip id="bike211" type="bike_bicycle" depart="879.83" departLane="best" from="-67332820#2" to="366817715"/>
    <trip id="bike212" type="bike_bicycle" depart="884.00" departLane="best" departSpeed="max" from="237519745" to="129571747"/>
    <trip id="bike213" type="bike_bicycle" depart="888.17" departLane="best" from="31290865#0" to="-129037726"/>
    <trip id="bike214" type="bike_bicycle" depart="892.34" departLane="best" from="35784922#0" to="401767811"/>
    <trip id="bike215" type="bike_bicycle" depart="896.51" departLane="best" from="-331354696#0" to="23646776#1"/>
    <trip id="bike216" type="bike_bicycle" depart="900.68" departLane="best" from="-597786483#0" to="796584334"/>
    <trip id="bike217" type="bike_bicycle" depart="904.85" departLane="best" from="239663350#3" to="-219896193#2"/>
    <trip id="bike220" type="bike_bicycle" depart="917.36" departLane="best" from="31324769#1" to="893655088#2"/>
    <trip id="bike223" type="bike_bicycle" depart="929.87" departLane="best" from="332019191#1" to="28115679#0"/>
    <trip id="bike224" type="bike_bicycle" depart="934.04" departLane="best" from="382462789" to="29550058"/>
    <trip id="bike225" type="bike_bicycle" depart="938.20" departLane="best" from="56767124" to="37565888#1"/>
    <trip id="bike226" type="bike_bicycle" depart="942.37" departLane="best" departSpeed="max" from="23646769#0" to="173076714#0"/>
    <trip id="bike227" type="bike_bicycle" depart="946.54" departLane="best" departSpeed="max" from="-796584335" to="331354693#1"/>
    <trip id="bike228" type="bike_bicycle" depart="950.71" departLane="best" from="366848251#0" to="28117471"/>
    <trip id="bike229" type="bike_bicycle" depart="954.88" departLane="best" from="309712273" to="18978883#1"/>
    <trip id="bike231" type="bike_bicycle" depart="963.22" departLane="best" departSpeed="max" from="-929827887" to="19210174"/>
    <trip id="bike232" type="bike_bicycle" depart="967.39" departLane="best" from="28026240#0" to="-37573099"/>
    <trip id="bike233" type="bike_bicycle" depart="971.56" departLane="best" departSpeed="max" from="-796584320" to="366702322"/>
    <trip id="bike234" type="bike_bicycle" depart="975.73" departLane="best" from="331354689#1" to="-28114058#2"/>
    <trip id="bike235" type="bike_bicycle" depart="979.90" departLane="best" from="19802255#1" to="29550048#0"/>
    <trip id="bike238" type="bike_bicycle" depart="992.41" departLane="best" from="28117491#1" to="366808341"/>
    <trip id="bike240" type="bike_bicycle" depart="1000.75" departLane="best" from="19210171#2" to="-129037726"/>
    <trip id="bike241" type="bike_bicycle" depart="1004.92" departLane="best" from="191200292#3" to="37569022#1"/>
    <trip id="bike242" type="bike_bicycle" depart="1009.09" departLane="best" from="441256452#2" to="796584329"/>
    <trip id="bike243" type="bike_bicycle" depart="1013.26" departLane="best" from="19804766#2" to="37567711#2"/>
    <trip id="bike244" type="bike_bicycle" depart="1017.43" departLane="best" from="28070009" to="32508332#0"/>
    <trip id="bike245" type="bike_bicycle" depart="1021.60" departLane="best" departSpeed="max" from="-796584310" to="113929820#3"/>
    <trip id="bike246" type="bike_bicycle" depart="1025.77" departLane="best" from="217797728" to="-191200292#2"/>
    <trip id="bike247" type="bike_bicycle" depart="1029.94" departLane="best" from="18978590#1" to="346472116#7"/>
    <trip id="bike249" type="bike_bicycle" depart="1038.28" departLane="best" departSpeed="max" from="236186051#0" to="-373489782#1"/>
    <trip id="bike252" type="bike_bicycle" depart="1050.79" departLane="best" from="-191200292#2" to="331354696#0"/>
    <trip id="bike254" type="bike_bicycle" depart="1059.13" departLane="best" from="-219896193#2" to="219896197"/>
    <trip id="bike255" type="bike_bicycle" depart="1063.30" departLane="best" from="-786019230" to="19747856"/>
    <trip id="bike258" type="bike_bicycle" depart="1075.81" departLane="best" departSpeed="max" from="-796584339" to="-31321183#0"/>
    <trip id="bike259" type="bike_bicycle" depart="1079.98" departLane="best" departSpeed="max" from="-163400032" to="29550032#2"/>
    <trip id="bike260" type="bike_bicycle" depart="1084.15" departLane="best" from="976693854#1" to="19804752#0"/>
    <trip id="bike261" type="bike_bicycle" depart="1088.32" departLane="best" from="31286586#2" to="426758020"/>
    <trip id="bike262" type="bike_bicycle" depart="1092.49" departLane="best" from="31286612#4" to="37569022#2"/>
    <trip id="bike263" type="bike_bicycle" depart="1096.66" departLane="best" from="67377860" to="-761817386#0"/>
    <trip id="bike264" type="bike_bicycle" depart="1100.83" departLane="best" from="-173076714#0" to="-49061644#2"/>
    <trip id="bike265" type="bike_bicycle" depart="1105.00" departLane="best" departSpeed="max" from="-35784928" to="335906838"/>
    <trip id="bike266" type="bike_bicycle" depart="1109.17" departLane="best" from="28115626#0" to="113929820#1"/>
    <trip id="bike267" type="bike_bicycle" depart="1113.34" departLane="best" from="331354676#0" to="380824802"/>
    <trip id="bike268" type="bike_bicycle" depart="1117.51" departLane="best" from="-53826243#3" to="32596018#13"/>
    <trip id="bike269" type="bike_bicycle" depart="1121.68" departLane="best" departSpeed="max" from="347094565#0" to="-338940730#2"/>
    <trip id="bike270" type="bike_bicycle" depart="1125.85" departLane="best" from="37569022#0" to="796584340"/>
    <trip id="bike272" type="bike_bicycle" depart="1134.19" departLane="best" from="131703218#0" to="346472116#5"/>
    <trip id="bike273" type="bike_bicycle" depart="1138.36" departLane="best" from="68259038" to="22743745#2"/>
    <trip id="bike275" type="bike_bicycle" depart="1146.69" departLane="best" from="328447414" to="331354675"/>
    <trip id="bike276" type="bike_bicycle" depart="1150.86" departLane="best" from="-32596018#9" to="406432861#1"/>
    <trip id="bike277" type="bike_bicycle" depart="1155.03" departLane="best" from="429907872#1" to="31739089#1"/>
    <trip id="bike278" type="bike_bicycle" depart="1159.20" departLane="best" from="-338940730#4" to="891841345#0"/>
    <trip id="bike280" type="bike_bicycle" depart="1167.54" departLane="best" from="19804794" to="19804805"/>
    <trip id="bike281" type="bike_bicycle" depart="1171.71" departLane="best" from="238758031#0" to="19802241#0"/>
    <trip id="bike282" type="bike_bicycle" depart="1175.88" departLane="best" from="42959260#2" to="510585240"/>
    <trip id="bike283" type="bike_bicycle" depart="1180.05" departLane="best" from="-331354694#3" to="796584336"/>
    <trip id="bike284" type="bike_bicycle" depart="1184.22" departLane="best" from="31236760#0" to="542662379"/>
    <trip id="bike285" type="bike_bicycle" depart="1188.39" departLane="best" from="331354690" to="238193500#1"/>
    <trip id="bike286" type="bike_bicycle" depart="1192.56" departLane="best" from="332028049#5" to="796584341"/>
    <trip id="bike287" type="bike_bicycle" depart="1196.73" departLane="best" from="-893655088#2" to="49061644#1"/>
    <trip id="bike288" type="bike_bicycle" depart="1200.90" departLane="best" from="27954450" to="28081223"/>
    <trip id="bike289" type="bike_bicycle" depart="1205.07" departLane="best" from="217797728" to="37378897#2"/>
    <trip id="bike291" type="bike_bicycle" depart="1213.41" departLane="best" from="382462789" to="-32596018#0"/>
    <trip id="bike292" type="bike_bicycle" depart="1217.58" departLane="best" from="508362483#2" to="129089162#1"/>
    <trip id="bike293" type="bike_bicycle" depart="1221.75" departLane="best" from="22744034#1" to="32596018#2"/>
    <trip id="bike294" type="bike_bicycle" depart="1225.92" departLane="best" from="19210168#5" to="-191200292#2"/>
    <trip id="bike295" type="bike_bicycle" depart="1230.09" departLane="best" from="430444859" to="-671589875#1"/>
    <trip id="bike297" type="bike_bicycle" depart="1238.43" departLane="best" from="18979260" to="67332820#2"/>
    <trip id="bike298" type="bike_bicycle" depart="1242.60" departLane="best" from="331354682" to="18979106"/>
    <trip id="bike299" type="bike_bicycle" depart="1246.77" departLane="best" from="-129042970#5" to="796584324"/>