<?xml version="1.0" encoding="UTF-8"?>
<!-- generated on 2021-10-31 22:33:00.546810 by $Id$ v1_10_0+0000-83496a5972
  options: 
-->
<routes xmlns:xsi="http://www.w3.org/2001/XMLSchema-instance" xsi:noNamespaceSchemaLocation="http://sumo.dlr.de/xsd/routes_file.xsd">
    <vType id="ped_pedestrian" vClass="pedestrian"/>
    <person id="ped0" depart="0.00" type="ped_pedestrian">
        <walk from="37246859#0" to="-207307419#1"/>
    </person>
    <person id="ped1" depart="2.11" type="ped_pedestrian">
        <walk from="19124193#1" to="18615552#11"/>
    </person>
    <person id="ped2" depart="4.22" type="ped_pedestrian">
        <walk from="422420209" to="376908941#3"/>
    </person>
    <person id="ped3" depart="6.33" type="ped_pedestrian">
        <walk from="700068775#0" to="-406432861#0"/>
    </person>
    <person id="ped4" depart="8.44" type="ped_pedestrian">
        <walk from="261211939#2" to="-237519742#1"/>
    </person>
    <person id="ped5" depart="10.55" type="ped_pedestrian">
        <walk from="-223043135" to="160127234#5"/>
    </person>
    <person id="ped6" depart="12.66" type="ped_pedestrian">
        <walk from="37379053#0" to="31321653#0"/>
    </person>
    <person id="ped7" depart="14.77" type="ped_pedestrian">
        <walk from="18545937" to="332019210"/>
    </person>
    <person id="ped8" depart="16.88" type="ped_pedestrian">
        <walk from="56767128#0" to="-18978590#4"/>
    </person>
    <person id="ped9" depart="18.99" type="ped_pedestrian">
        <walk from="56767120#1" to="403903959"/>
    </person>
    <person id="ped10" depart="21.11" type="ped_pedestrian">
        <walk from="206516692#1" to="119564809#0"/>
    </person>
    <person id="ped11" depart="23.22" type="ped_pedestrian">
        <walk from="786019231#2" to="19853987#0"/>
    </person>
    <person id="ped12" depart="25.33" type="ped_pedestrian">
        <walk from="671589849#5" to="35784928"/>
    </person>
    <person id="ped13" depart="27.44" type="ped_pedestrian">
        <walk from="56767124" to="419392153#0"/>
    </person>
    <person id="ped14" depart="29.55" type="ped_pedestrian">
        <walk from="31286977#1" to="796584342"/>
    </person>
    <person id="ped15" depart="31.66" type="ped_pedestrian">
        <walk from="236406393" to="31648547"/>
    </person>
    <person id="ped16" depart="33.77" type="ped_pedestrian">
        <walk from="632014798#0" to="366848268#0"/>
    </person>
    <person id="ped17" depart="35.88" type="ped_pedestrian">
        <walk from="67332811#0" to="331354691#1"/>
    </person>
    <person id="ped18" depart="37.99" type="ped_pedestrian">
        <walk from="407191859#1" to="-28115679#1"/>
    </person>
    <person id="ped19" depart="40.10" type="ped_pedestrian">
        <walk from="18616007#2" to="19210180#0"/>
    </person>
    <person id="ped20" depart="42.21" type="ped_pedestrian">
        <walk from="-37565660#1" to="18937654#0"/>
    </person>
    <person id="ped21" depart="44.32" type="ped_pedestrian">
        <walk from="-597786474#1" to="19124203"/>
    </person>
    <person id="ped22" depart="46.43" type="ped_pedestrian">
        <walk from="370733749" to="22743764#4"/>
    </person>
    <person id="ped23" depart="48.54" type="ped_pedestrian">
        <walk from="19124160#1" to="761673866#1"/>
    </person>
    <person id="ped24" depart="50.65" type="ped_pedestrian">
        <walk from="37375825#0" to="366023179"/>
    </person>
    <person id="ped25" depart="52.76" type="ped_pedestrian">
        <walk from="138582671#0" to="418142484"/>
    </person>
    <person id="ped26" depart="54.87" type="ped_pedestrian">
        <walk from="127353234#1" to="236406404"/>
    </person>
    <person id="ped27" depart="56.98" type="ped_pedestrian">
        <walk from="892407195#2" to="37246859#1"/>
    </person>
    <person id="ped28" depart="59.10" type="ped_pedestrian">
        <walk from="328359532#2" to="376908952"/>
    </person>
    <person id="ped29" depart="61.21" type="ped_pedestrian">
        <walk from="670969142#1" to="494998329"/>
    </person>
    <person id="ped30" depart="63.32" type="ped_pedestrian">
        <walk from="18616007#6" to="-238193529#6"/>
    </person>
    <person id="ped31" depart="65.43" type="ped_pedestrian">
        <walk from="19802251#1" to="19124167"/>
    </person>
    <person id="ped32" depart="67.54" type="ped_pedestrian">
        <walk from="163397786#1" to="762373671#3"/>
    </person>
    <person id="ped33" depart="69.65" type="ped_pedestrian">
        <walk from="67377840" to="19802250#2"/>
    </person>
    <person id="ped34" depart="71.76" type="ped_pedestrian">
        <walk from="37532037#0" to="237655241#0"/>
    </person>
    <person id="ped35" depart="73.87" type="ped_pedestrian">
        <walk from="74686100" to="28115304"/>
    </person>
    <person id="ped36" depart="75.98" type="ped_pedestrian">
        <walk from="19095807" to="18978590#1"/>
    </person>
    <person id="ped37" depart="78.09" type="ped_pedestrian">
        <walk from="328447414" to="19095803#0"/>
    </person>
    <person id="ped38" depart="80.20" type="ped_pedestrian">
        <walk from="332019194#3" to="702275763"/>
    </person>
    <person id="ped39" depart="82.31" type="ped_pedestrian">
        <walk from="238193529#1" to="18545389#0"/>
    </person>
    <person id="ped40" depart="84.42" type="ped_pedestrian">
        <walk from="975809371" to="300586767#1"/>
    </person>
    <person id="ped41" depart="86.53" type="ped_pedestrian">
        <walk from="-49060172#0" to="-28117380"/>
    </person>
    <person id="ped42" depart="88.64" type="ped_pedestrian">
        <walk from="-643161233#0" to="367117199#1"/>
    </person>
    <person id="ped43" depart="90.75" type="ped_pedestrian">
        <walk from="542662379" to="261211941#0"/>
    </person>
    <person id="ped44" depart="92.86" type="ped_pedestrian">
        <walk from="95708293" to="31285754#0"/>
    </person>
    <person id="ped45" depart="94.97" type="ped_pedestrian">
        <walk from="796584336" to="67332806#1"/>
    </person>
    <person id="ped46" depart="97.09" type="ped_pedestrian">
        <walk from="-19210168#4" to="408046235#3"/>
    </person>
    <person id="ped47" depart="99.20" type="ped_pedestrian">
        <walk from="376908944" to="31287022#1"/>
    </person>
    <person id="ped48" depart="101.31" type="ped_pedestrian">
        <walk from="19124160#0" to="37246861"/>
    </person>
    <person id="ped49" depart="103.42" type="ped_pedestrian">
        <walk from="-67332820#0" to="28027584#3"/>
    </person>
    <person id="ped50" depart="105.53" type="ped_pedestrian">
        <walk from="28114029" to="768280575"/>
    </person>
    <person id="ped51" depart="107.64" type="ped_pedestrian">
        <walk from="67377834#1" to="19095804"/>
    </person>
    <person id="ped52" depart="109.75" type="ped_pedestrian">
        <walk from="29550048#0" to="138582677#7"/>
    </person>
    <person id="ped53" depart="111.86" type="ped_pedestrian">
        <walk from="74686096#0" to="67377809"/>
    </person>
    <person id="ped54" depart="113.97" type="ped_pedestrian">
        <walk from="197717494#0" to="37246857#0"/>
    </person>
    <person id="ped55" depart="116.08" type="ped_pedestrian">
        <walk from="366023179" to="116395149#0"/>
    </person>
    <person id="ped56" depart="118.19" type="ped_pedestrian">
        <walk from="452879653#1" to="31291220#3"/>
    </person>
    <person id="ped57" depart="120.30" type="ped_pedestrian">
        <walk from="-113880132#0" to="19804761#2"/>
    </person>
    <person id="ped58" depart="122.41" type="ped_pedestrian">
        <walk from="-19804746#0" to="760265081#2"/>
    </person>
    <person id="ped59" depart="124.52" type="ped_pedestrian">
        <walk from="67377853#0" to="632014800#0"/>
    </person>
    <person id="ped60" depart="126.63" type="ped_pedestrian">
        <walk from="19790067#2" to="-31648543#2"/>
    </person>
    <person id="ped61" depart="128.74" type="ped_pedestrian">
        <walk from="67377849" to="762373676#2"/>
    </person>
    <person id="ped62" depart="130.85" type="ped_pedestrian">
        <walk from="-406432859#1" to="28370590"/>
    </person>
    <person id="ped63" depart="132.96" type="ped_pedestrian">
        <walk from="-338940730#4" to="444453200"/>
    </person>
    <person id="ped64" depart="135.08" type="ped_pedestrian">
        <walk from="458722823" to="-796584311"/>
    </person>
    <person id="ped65" depart="137.19" type="ped_pedestrian">
        <walk from="28116755#1" to="31648543#2"/>
    </person>
    <person id="ped66" depart="139.30" type="ped_pedestrian">
        <walk from="19095807" to="67377816"/>
    </person>
    <person id="ped67" depart="141.41" type="ped_pedestrian">
        <walk from="261491871#0" to="163397786#3"/>
    </person>
    <person id="ped68" depart="143.52" type="ped_pedestrian">
        <walk from="31291220#3" to="419392153#1"/>
    </person>
    <person id="ped69" depart="145.63" type="ped_pedestrian">
        <walk from="160127236" to="19802241#2"/>
    </person>
    <person id="ped70" depart="147.74" type="ped_pedestrian">
        <walk from="940309790" to="37379053#0"/>
    </person>
    <person id="ped71" depart="149.85" type="ped_pedestrian">
        <walk from="28089431#2" to="310425662#1"/>
    </person>
    <person id="ped72" depart="151.96" type="ped_pedestrian">
        <walk from="-69975866" to="18615552#2"/>
    </person>
    <person id="ped73" depart="154.07" type="ped_pedestrian">
        <walk from="206079700" to="332019207#2"/>
    </person>
    <person id="ped74" depart="156.18" type="ped_pedestrian">
        <walk from="18616007#9" to="18545937"/>
    </person>
    <person id="ped75" depart="158.29" type="ped_pedestrian">
        <walk from="-35784928" to="367117203#6"/>
    </person>
    <person id="ped76" depart="160.40" type="ped_pedestrian">
        <walk from="18616007#6" to="736614699#2"/>
    </person>
    <person id="ped77" depart="162.51" type="ped_pedestrian">
        <walk from="18940032" to="37569559#1"/>
    </person>
    <person id="ped78" depart="164.62" type="ped_pedestrian">
        <walk from="163400032" to="-796584322"/>
    </person>
    <person id="ped79" depart="166.73" type="ped_pedestrian">
        <walk from="761673865#0" to="331354681#0"/>
    </person>
    <person id="ped80" depart="168.84" type="ped_pedestrian">
        <walk from="28116203" to="508362482"/>
    </person>
    <person id="ped81" depart="170.95" type="ped_pedestrian">
        <walk from="56767125#0" to="160085441#1"/>
    </person>
    <person id="ped82" depart="173.07" type="ped_pedestrian">
        <walk from="-53826243#3" to="279072119"/>
    </person>
    <person id="ped83" depart="175.18" type="ped_pedestrian">
        <walk from="261491871#3" to="28115723#0"/>
    </person>
    <person id="ped84" depart="177.29" type="ped_pedestrian">
        <walk from="414702825" to="37588747#2"/>
    </person>
    <person id="ped85" depart="179.40" type="ped_pedestrian">
        <walk from="85650465#1" to="-54905947#0"/>
    </person>
    <person id="ped86" depart="181.51" type="ped_pedestrian">
        <walk from="67332811#0" to="18979063"/>
    </person>
    <person id="ped87" depart="183.62" type="ped_pedestrian">
        <walk from="160085441#0" to="28112665#1"/>
    </person>
    <person id="ped88" depart="185.73" type="ped_pedestrian">
        <walk from="261211939#2" to="19124206"/>
    </person>
    <person id="ped89" depart="187.84" type="ped_pedestrian">
        <walk from="18979260" to="760265076#1"/>
    </person>
    <person id="ped90" depart="189.95" type="ped_pedestrian">
        <walk from="28111986#2" to="67332807#1"/>
    </person>
    <person id="ped91" depart="192.06" type="ped_pedestrian">
        <walk from="31648543#4" to="-287836523#1"/>
    </person>
    <person id="ped92" depart="194.17" type="ped_pedestrian">
        <walk from="976693855" to="643161235"/>
    </person>
    <person id="ped93" depart="196.28" type="ped_pedestrian">
        <walk from="796584330" to="760265080#1"/>
    </person>
    <person id="ped94" depart="198.39" type="ped_pedestrian">
        <walk from="671589851#2" to="131703218#0"/>
    </person>
    <person id="ped95" depart="200.50" type="ped_pedestrian">
        <walk from="238327266" to="-31648543#4"/>
    </person>
    <person id="ped96" depart="202.61" type="ped_pedestrian">
        <walk from="236406403" to="85650465#4"/>
    </person>
    <person id="ped97" depart="204.72" type="ped_pedestrian">
        <walk from="19095808" to="508284948#0"/>
    </person>
    <person id="ped98" depart="206.83" type="ped_pedestrian">
        <walk from="28114058#3" to="261491871#0"/>
    </person>
    <person id="ped99" depart="208.94" type="ped_pedestrian">
        <walk from="786019231#2" to="95708277#0"/>
    </person>
    <person id="ped100" depart="211.06" type="ped_pedestrian">
        <walk from="32508332#2" to="408046231#0"/>
    </person>
    <person id="ped101" depart="213.17" type="ped_pedestrian">
        <walk from="119429324#0" to="197717492#1"/>
    </person>
    <person id="ped102" depart="215.28" type="ped_pedestrian">
        <walk from="796584329" to="331354693#3"/>
    </person>
    <person id="ped103" depart="217.39" type="ped_pedestrian">
        <walk from="31320752#4" to="437986117#0"/>
    </person>
    <person id="ped104" depart="219.50" type="ped_pedestrian">
        <walk from="-31321183#1" to="332019194#2"/>
    </person>
    <person id="ped105" depart="221.61" type="ped_pedestrian">
        <walk from="29550056#2" to="671589881"/>
    </person>
    <person id="ped106" depart="223.72" type="ped_pedestrian">
        <walk from="119569783#0" to="796584306"/>
    </person>
    <person id="ped107" depart="225.83" type="ped_pedestrian">
        <walk from="-37565661#1" to="147216225"/>
    </person>
    <person id="ped108" depart="227.94" type="ped_pedestrian">
        <walk from="338940730#5" to="376691940"/>
    </person>
    <person id="ped109" depart="230.05" type="ped_pedestrian">
        <walk from="18939655#1" to="-67661819"/>
    </person>
    <person id="ped110" depart="232.16" type="ped_pedestrian">
        <walk from="700068769#1" to="18978590#0"/>
    </person>
    <person id="ped111" depart="234.27" type="ped_pedestrian">
        <walk from="338940730#2" to="366848273"/>
    </person>
    <person id="ped112" depart="236.38" type="ped_pedestrian">
        <walk from="257087404#1" to="332019194#0"/>
    </person>
    <person id="ped113" depart="238.49" type="ped_pedestrian">
        <walk from="31284608#1" to="761673863"/>
    </person>
    <person id="ped114" depart="240.60" type="ped_pedestrian">
        <walk from="160129059#7" to="408046218"/>
    </person>
    <person id="ped115" depart="242.71" type="ped_pedestrian">
        <walk from="18940306" to="237655241#0"/>
    </person>
    <person id="ped116" depart="244.82" type="ped_pedestrian">
        <walk from="37573096" to="197717494#4"/>
    </person>
    <person id="ped117" depart="246.93" type="ped_pedestrian">
        <walk from="19802253" to="441256456"/>
    </person>
    <person id="ped118" depart="249.04" type="ped_pedestrian">
        <walk from="-366817715" to="28115303"/>
    </person>
    <person id="ped119" depart="251.16" type="ped_pedestrian">
        <walk from="976693854#0" to="95708293"/>
    </person>
    <person id="ped120" depart="253.27" type="ped_pedestrian">
        <walk from="-366848248#0" to="163397792"/>
    </person>
    <person id="ped121" depart="255.38" type="ped_pedestrian">
        <walk from="19095808" to="760268592#0"/>
    </person>
    <person id="ped122" depart="257.49" type="ped_pedestrian">
        <walk from="67377861#0" to="67377853#2"/>
    </person>
    <person id="ped123" depart="259.60" type="ped_pedestrian">
        <walk from="22744034#0" to="119569783#1"/>
    </person>
    <person id="ped124" depart="261.71" type="ped_pedestrian">
        <walk from="639346211#0" to="406432861#0"/>
    </person>
    <person id="ped125" depart="263.82" type="ped_pedestrian">
        <walk from="366702327#0" to="890744301#0"/>
    </person>
    <person id="ped126" depart="265.93" type="ped_pedestrian">
        <walk from="37530630" to="-19124180#1"/>
    </person>
    <person id="ped127" depart="268.04" type="ped_pedestrian">
        <walk from="58993469#3" to="197717494#3"/>
    </person>
    <person id="ped128" depart="270.15" type="ped_pedestrian">
        <walk from="37568319" to="761708383#0"/>
    </person>
    <person id="ped129" depart="272.26" type="ped_pedestrian">
        <walk from="-796584328" to="-67377807#0"/>
    </person>
    <person id="ped130" depart="274.37" type="ped_pedestrian">
        <walk from="-614447133#0" to="31739089#1"/>
    </person>
    <person id="ped131" depart="276.48" type="ped_pedestrian">
        <walk from="19124187" to="35784930#4"/>
    </person>
    <person id="ped132" depart="278.59" type="ped_pedestrian">
        <walk from="408046229#0" to="160129059#5"/>
    </person>
    <person id="ped133" depart="280.70" type="ped_pedestrian">
        <walk from="367130634" to="19095806#0"/>
    </person>
    <person id="ped134" depart="282.81" type="ped_pedestrian">
        <walk from="286771260" to="736614699#2"/>
    </person>
    <person id="ped135" depart="284.92" type="ped_pedestrian">
        <walk from="671589849#1" to="-49061644#2"/>
    </person>
    <person id="ped136" depart="287.03" type="ped_pedestrian">
        <walk from="261491871#3" to="19124197#2"/>
    </person>
    <person id="ped137" depart="289.15" type="ped_pedestrian">
        <walk from="-173076714#2" to="460349351"/>
    </person>
    <person id="ped138" depart="291.26" type="ped_pedestrian">
        <walk from="371334484" to="19095802#0"/>
    </person>
    <person id="ped139" depart="293.37" type="ped_pedestrian">
        <walk from="422633157#1" to="31648546#1"/>
    </person>
    <person id="ped140" depart="295.48" type="ped_pedestrian">
        <walk from="270571059#3" to="-19124211"/>
    </person>
    <person id="ped141" depart="297.59" type="ped_pedestrian">
        <walk from="-367117200#1" to="67377878"/>
    </person>
    <person id="ped142" depart="299.70" type="ped_pedestrian">
        <walk from="736614697#1" to="31321653#2"/>
    </person>
    <person id="ped143" depart="301.81" type="ped_pedestrian">
        <walk from="64237844#0" to="332019191#2"/>
    </person>
    <person id="ped144" depart="303.92" type="ped_pedestrian">
        <walk from="113880131#3" to="-796584308"/>
    </person>
    <person id="ped145" depart="306.03" type="ped_pedestrian">
        <walk from="19790070#0" to="709623115"/>
    </person>
    <person id="ped146" depart="308.14" type="ped_pedestrian">
        <walk from="56767102#12" to="67332806#1"/>
    </person>
    <person id="ped147" depart="310.25" type="ped_pedestrian">
        <walk from="709623115" to="163393999#1"/>
    </person>
    <person id="ped148" depart="312.36" type="ped_pedestrian">
        <walk from="18979198" to="-597786478#0"/>
    </person>
    <person id="ped149" depart="314.47" type="ped_pedestrian">
        <walk from="50001925#0" to="67377880"/>
    </person>
    <person id="ped150" depart="316.58" type="ped_pedestrian">
        <walk from="239209578#2" to="366848276#2"/>
    </person>
    <person id="ped151" depart="318.69" type="ped_pedestrian">
        <walk from="116395149#5" to="760265081#4"/>
    </person>
    <person id="ped152" depart="320.80" type="ped_pedestrian">
        <walk from="67332820#5" to="814348045"/>
    </person>
    <person id="ped153" depart="322.91" type="ped_pedestrian">
        <walk from="568970294" to="67377863"/>
    </person>
    <person id="ped154" depart="325.02" type="ped_pedestrian">
        <walk from="-207307419#1" to="422420210"/>
    </person>
    <person id="ped155" depart="327.14" type="ped_pedestrian">
        <walk from="19804779#1" to="760265081#7"/>
    </person>
    <person id="ped156" depart="329.25" type="ped_pedestrian">
        <walk from="56767102#8" to="67332820#3"/>
    </person>
    <person id="ped157" depart="331.36" type="ped_pedestrian">
        <walk from="568970294" to="19124160#0"/>
    </person>
    <person id="ped158" depart="333.47" type="ped_pedestrian">
        <walk from="532422707#0" to="-639346211#1"/>
    </person>
    <person id="ped159" depart="335.58" type="ped_pedestrian">
        <walk from="67377815" to="67332801#1"/>
    </person>
    <person id="ped160" depart="337.69" type="ped_pedestrian">
        <walk from="18615552#0" to="589901082#1"/>
    </person>
    <person id="ped161" depart="339.80" type="ped_pedestrian">
        <walk from="28115543" to="19790064#1"/>
    </person>
    <person id="ped162" depart="341.91" type="ped_pedestrian">
        <walk from="56767102#10" to="18616007#2"/>
    </person>
    <person id="ped163" depart="344.02" type="ped_pedestrian">
        <walk from="-206079701" to="160127228#1"/>
    </person>
    <person id="ped164" depart="346.13" type="ped_pedestrian">
        <walk from="19804770" to="67332820#4"/>
    </person>
    <person id="ped165" depart="348.24" type="ped_pedestrian">
        <walk from="796584324" to="19124209#1"/>
    </person>
    <person id="ped166" depart="350.35" type="ped_pedestrian">
        <walk from="372747815" to="238193529#5"/>
    </person>
    <person id="ped167" depart="352.46" type="ped_pedestrian">
        <walk from="814351067" to="31286977#1"/>
    </person>
    <person id="ped168" depart="354.57" type="ped_pedestrian">
        <walk from="761708383#1" to="-67377807#0"/>
    </person>
    <person id="ped169" depart="356.68" type="ped_pedestrian">
        <walk from="796584334" to="138582677#7"/>
    </person>
    <person id="ped170" depart="358.79" type="ped_pedestrian">
        <walk from="796584311" to="19095808"/>
    </person>
    <person id="ped171" depart="360.90" type="ped_pedestrian">
        <walk from="-639625555#0" to="28027584#3"/>
    </person>
    <person id="ped172" depart="363.01" type="ped_pedestrian">
        <walk from="412190294" to="19802249"/>
    </person>
    <person id="ped173" depart="365.13" type="ped_pedestrian">
        <walk from="361194753" to="309712271#0"/>
    </person>
    <person id="ped174" depart="367.24" type="ped_pedestrian">
        <walk from="23646774#0" to="331354690"/>
    </person>
    <person id="ped175" depart="369.35" type="ped_pedestrian">
        <walk from="18980244#2" to="407523086#0"/>
    </person>
    <person id="ped176" depart="371.46" type="ped_pedestrian">
        <walk from="-113880679#2" to="760265079#2"/>
    </person>
    <person id="ped177" depart="373.57" type="ped_pedestrian">
        <walk from="31291220#1" to="408046233#1"/>
    </person>
    <person id="ped178" depart="375.68" type="ped_pedestrian">
        <walk from="426750534#1" to="37569563"/>
    </person>
    <person id="ped179" depart="377.79" type="ped_pedestrian">
        <walk from="22743764#2" to="-35783393"/>
    </person>
    <person id="ped180" depart="379.90" type="ped_pedestrian">
        <walk from="37568321#1" to="19804776#1"/>
    </person>
    <person id="ped181" depart="382.01" type="ped_pedestrian">
        <walk from="19802249" to="671589851#0"/>
    </person>
    <person id="ped182" depart="384.12" type="ped_pedestrian">
        <walk from="408046235#0" to="197717494#5"/>
    </person>
    <person id="ped183" depart="386.23" type="ped_pedestrian">
        <walk from="19790071#1" to="239663350#2"/>
    </person>
    <person id="ped184" depart="388.34" type="ped_pedestrian">
        <walk from="238758031#3" to="197717490"/>
    </person>
    <person id="ped185" depart="390.45" type="ped_pedestrian">
        <walk from="-796584307" to="260851022#1"/>
    </person>
    <person id="ped186" depart="392.56" type="ped_pedestrian">
        <walk from="762373666" to="376908941#5"/>
    </person>
    <person id="ped187" depart="394.67" type="ped_pedestrian">
        <walk from="736614694#3" to="366848249#3"/>
    </person>
    <person id="ped188" depart="396.78" type="ped_pedestrian">
        <walk from="19790056#0" to="31324769#2"/>
    </person>
    <person id="ped189" depart="398.89" type="ped_pedestrian">
        <walk from="-113880132#0" to="19210172#1"/>
    </person>
    <person id="ped190" depart="401.00" type="ped_pedestrian">
        <walk from="27663059#1" to="331354694#3"/>
    </person>
    <person id="ped191" depart="403.12" type="ped_pedestrian">
        <walk from="37530635#0" to="28115676#0"/>
    </person>
    <person id="ped192" depart="405.23" type="ped_pedestrian">
        <walk from="28111968" to="163399445"/>
    </person>
    <person id="ped193" depart="407.34" type="ped_pedestrian">
        <walk from="28116466" to="736614693"/>
    </person>
    <person id="ped194" depart="409.45" type="ped_pedestrian">
        <walk from="56767102#12" to="138582663"/>
    </person>
    <person id="ped195" depart="411.56" type="ped_pedestrian">
        <walk from="-401767811" to="309795417"/>
    </person>
    <person id="ped196" depart="413.67" type="ped_pedestrian">
        <walk from="367123480" to="19804797#0"/>
    </person>
    <person id="ped197" depart="415.78" type="ped_pedestrian">
        <walk from="37588747#0" to="18615552#2"/>
    </person>
    <person id="ped198" depart="417.89" type="ped_pedestrian">
        <walk from="160127234#6" to="-206080260#2"/>
    </person>
    <person id="ped199" depart="420.00" type="ped_pedestrian">
        <walk from="18977862#2" to="28116755#1"/>
    </person>
    <person id="ped200" depart="422.11" type="ped_pedestrian">
        <walk from="671589852#1" to="-366817716"/>
    </person>
    <person id="ped201" depart="424.22" type="ped_pedestrian">
        <walk from="252916207" to="367117203#2"/>
    </person>
    <person id="ped202" depart="426.33" type="ped_pedestrian">
        <walk from="160127228#5" to="392815623#3"/>
    </person>
    <person id="ped203" depart="428.44" type="ped_pedestrian">
        <walk from="294382780" to="18946341#1"/>
    </person>
    <person id="ped204" depart="430.55" type="ped_pedestrian">
        <walk from="37532040" to="-18616774"/>
    </person>
    <person id="ped205" depart="432.66" type="ped_pedestrian">
        <walk from="441256452#5" to="458722841#1"/>
    </person>
    <person id="ped206" depart="434.77" type="ped_pedestrian">
        <walk from="-606056470#2" to="26707226#0"/>
    </person>
    <person id="ped207" depart="436.88" type="ped_pedestrian">
        <walk from="138582676#2" to="786019235#1"/>
    </person>
    <person id="ped208" depart="438.99" type="ped_pedestrian">
        <walk from="310425662#2" to="-287836523#0"/>
    </person>
    <person id="ped209" depart="441.10" type="ped_pedestrian">
        <walk from="18979106" to="671589851#1"/>
    </person>
    <person id="ped210" depart="443.22" type="ped_pedestrian">
        <walk from="28115244#1" to="56767102#5"/>
    </person>
    <person id="ped211" depart="445.33" type="ped_pedestrian">
        <walk from="37569023" to="890953791"/>
    </person>
    <person id="ped212" depart="447.44" type="ped_pedestrian">
        <walk from="338944243#1" to="767720539"/>
    </person>
    <person id="ped213" depart="449.55" type="ped_pedestrian">
        <walk from="700068773" to="366808341"/>
    </person>
    <person id="ped214" depart="451.66" type="ped_pedestrian">
        <walk from="408046233#1" to="29550067#2"/>
    </person>
    <person id="ped215" depart="453.77" type="ped_pedestrian">
        <walk from="632014798#3" to="31324769#1"/>
    </person>
    <person id="ped216" depart="455.88" type="ped_pedestrian">
        <walk from="70083833#1" to="426768411#0"/>
    </person>
    <person id="ped217" depart="457.99" type="ped_pedestrian">
        <walk from="28116741#2" to="19095786#0"/>
    </person>
    <person id="ped218" depart="460.10" type="ped_pedestrian">
        <walk from="18978883#0" to="371350120"/>
    </person>
    <person id="ped219" depart="462.21" type="ped_pedestrian">
        <walk from="458722823" to="31284440"/>
    </person>
    <person id="ped220" depart="464.32" type="ped_pedestrian">
        <walk from="366862903#3" to="19124192"/>
    </person>
    <person id="ped221" depart="466.43" type="ped_pedestrian">
        <walk from="-37246858#1" to="19210171#0"/>
    </person>
    <person id="ped222" depart="468.54" type="ped_pedestrian">
        <walk from="19124185#3" to="19802264#1"/>
    </person>
    <person id="ped223" depart="470.65" type="ped_pedestrian">
        <walk from="31291287#1" to="-796584340"/>
    </person>
    <person id="ped224" depart="472.76" type="ped_pedestrian">
        <walk from="18616882#1" to="392815620#2"/>
    </person>
    <person id="ped225" depart="474.87" type="ped_pedestrian">
        <walk from="407191882#3" to="-332019191#2"/>
    </person>
    <person id="ped226" depart="476.98" type="ped_pedestrian">
        <walk from="239663350#0" to="31321090"/>
    </person>
    <person id="ped227" depart="479.09" type="ped_pedestrian">
        <walk from="256163527#2" to="160129831#0"/>
    </person>
    <person id="ped228" depart="481.21" type="ped_pedestrian">
        <walk from="260851022#0" to="736614698#2"/>
    </person>