<?xml version="1.0" encoding="UTF-8"?>

<!-- generated on 2021-11-01 13:46:18 by Eclipse SUMO duarouter Version 1.10.0
<configuration xmlns:xsi="http://www.w3.org/2001/XMLSchema-instance" xsi:noNamespaceSchemaLocation="http://sumo.dlr.de/xsd/duarouterConfiguration.xsd">

    <input>
        <net-file value="C:\Users\juane\Sumo\2021-11-01-13-45-29\osm.net.xml"/>
        <route-files value="C:\Users\juane\Sumo\2021-11-01-13-45-29\osm.motorcycle.trips.xml"/>
    </input>

    <output>
        <output-file value="C:\Users\juane\Sumo\2021-11-01-13-45-29\osm.motorcycle.trips.xml.tmp"/>
        <write-trips value="true"/>
    </output>

    <time>
        <begin value="0"/>
        <end value="1800"/>
    </time>

    <report>
        <no-warnings value="true"/>
        <ignore-errors value="true"/>
        <no-step-log value="true"/>
    </report>

</configuration>
-->

<routes xmlns:xsi="http://www.w3.org/2001/XMLSchema-instance" xsi:noNamespaceSchemaLocation="http://sumo.dlr.de/xsd/routes_file.xsd">
    <vType id="moto_motorcycle" vClass="motorcycle"/>
    <trip id="moto0" type="moto_motorcycle" depart="0.00" departLane="best" from="28990928#3" to="-207175836#8"/>
    <trip id="moto1" type="moto_motorcycle" depart="5.87" departLane="best" from="35816703#1" to="31349231#3"/>
    <trip id="moto2" type="moto_motorcycle" depart="11.73" departLane="best" from="625985015#0" to="-27185017#0"/>
    <trip id="moto3" type="moto_motorcycle" depart="17.60" departLane="best" from="-207175836#6" to="124414563#2"/>
    <trip id="moto4" type="moto_motorcycle" depart="23.47" departLane="best" from="29027150#9" to="27197906#0"/>
    <trip id="moto5" type="moto_motorcycle" depart="29.34" departLane="best" from="592750772#1" to="-195293323#14"/>
    <trip id="moto6" type="moto_motorcycle" depart="35.20" departLane="best" from="592750762#4" to="33569531#2"/>
    <trip id="moto7" type="moto_motorcycle" depart="41.07" departLane="best" from="208585045#0" to="-592744810#6"/>
    <trip id="moto8" type="moto_motorcycle" depart="46.94" departLane="best" from="625791611" to="27201582#3"/>
    <trip id="moto9" type="moto_motorcycle" depart="52.80" departLane="best" from="592750763#1" to="36963678"/>
    <trip id="moto10" type="moto_motorcycle" depart="58.67" departLane="best" from="27185021" to="89344551#0"/>
    <trip id="moto11" type="moto_motorcycle" depart="64.54" departLane="best" from="592750800#6" to="28990928#2"/>
    <trip id="moto12" type="moto_motorcycle" depart="70.40" departLane="best" from="625794564#0" to="27197951#1"/>
    <trip id="moto13" type="moto_motorcycle" depart="76.27" departLane="best" departSpeed="max" from="-27155655" to="188590925#1"/>
    <trip id="moto14" type="moto_motorcycle" depart="82.14" departLane="best" departSpeed="max" from="-27185017#1" to="204638701#1"/>
    <trip id="moto15" type="moto_motorcycle" depart="88.01" departLane="best" from="188590925#0" to="89133441#1"/>
    <trip id="moto16" type="moto_motorcycle" depart="93.87" departLane="best" from="29027150#6" to="28990896#0"/>
    <trip id="moto17" type="moto_motorcycle" depart="99.74" departLane="best" departSpeed="max" from="-35817372" to="36963449#1"/>
    <trip id="moto18" type="moto_motorcycle" depart="105.61" departLane="best" from="89344651#1" to="29239868#0"/>
    <trip id="moto19" type="moto_motorcycle" depart="111.47" departLane="best" from="27185044#6" to="31484392#0"/>
    <trip id="moto20" type="moto_motorcycle" depart="117.34" departLane="best" from="625747350#2" to="592744810#3"/>
    <trip id="moto21" type="moto_motorcycle" depart="123.21" departLane="best" from="124414546#6" to="-241560355#3"/>
    <trip id="moto22" type="moto_motorcycle" depart="129.07" departLane="best" from="204638711" to="204254791"/>
    <trip id="moto23" type="moto_motorcycle" depart="134.94" departLane="best" from="625796125#0" to="208585048"/>
    <trip id="moto24" type="moto_motorcycle" depart="140.81" departLane="best" from="682881613#3" to="27161563#2"/>
    <trip id="moto25" type="moto_motorcycle" depart="146.68" departLane="best" from="188590924#7" to="204156081#1"/>
    <trip id="moto26" type="moto_motorcycle" depart="152.54" departLane="best" from="27197916#9" to="628992544#0"/>
    <trip id="moto27" type="moto_motorcycle" depart="158.41" departLane="best" from="27155590#0" to="188590916#0"/>
    <trip id="moto28" type="moto_motorcycle" depart="164.28" departLane="best" from="947049340" to="27185020"/>
    <trip id="moto29" type="moto_motorcycle" depart="170.14" departLane="best" departSpeed="max" from="-27162957" to="-27155612#0"/>
    <trip id="moto30" type="moto_motorcycle" depart="176.01" departLane="best" from="-27185044#0" to="29027150#8"/>
    <trip id="moto31" type="moto_motorcycle" depart="181.88" departLane="best" from="-27155625#0" to="27155611#1"/>
    <trip id="moto32" type="moto_motorcycle" depart="187.75" departLane="best" from="905034713" to="27185044#5"/>
    <trip id="moto33" type="moto_motorcycle" depart="193.61" departLane="best" from="29348882#5" to="27185382#1"/>
    <trip id="moto34" type="moto_motorcycle" depart="199.48" departLane="best" from="27155656#1" to="89138502#9"/>
    <trip id="moto35" type="moto_motorcycle" depart="205.35" departLane="best" from="625796124#3" to="204254787#0"/>
    <trip id="moto37" type="moto_motorcycle" depart="217.08" departLane="best" from="675523451#8" to="625796125#0"/>
    <trip id="moto38" type="moto_motorcycle" depart="222.95" departLane="best" from="204254788#4" to="291429627"/>
    <trip id="moto39" type="moto_motorcycle" depart="228.81" departLane="best" departSpeed="max" from="27197998#0" to="-592739057#2"/>
    <trip id="moto40" type="moto_motorcycle" depart="234.68" departLane="best" from="512876474#1" to="27185387"/>
    <trip id="moto41" type="moto_motorcycle" depart="240.55" departLane="best" from="-114797588#1" to="221652894#3"/>
    <trip id="moto42" type="moto_motorcycle" depart="246.42" departLane="best" departSpeed="max" from="-204539429" to="779421476"/>
    <trip id="moto43" type="moto_motorcycle" depart="252.28" departLane="best" from="625796125#4" to="625714307#2"/>
    <trip id="moto44" type="moto_motorcycle" depart="258.15" departLane="best" from="-27161563#2" to="27184986#1"/>
    <trip id="moto45" type="moto_motorcycle" depart="264.02" departLane="best" from="27161529" to="27197915#0"/>
    <trip id="moto46" type="moto_motorcycle" depart="269.88" departLane="best" from="188590924#7" to="625796125#4"/>
    <trip id="moto47" type="moto_motorcycle" depart="275.75" departLane="best" from="27155618#1" to="158605508#0"/>
    <trip id="moto48" type="moto_motorcycle" depart="281.62" departLane="best" from="27185033#0" to="36963678"/>
    <trip id="moto49" type="moto_motorcycle" depart="287.48" departLane="best" from="208585043#0" to="27201536#0"/>
    <trip id="moto50" type="moto_motorcycle" depart="293.35" departLane="best" from="124414547#0" to="188590916#3"/>
    <trip id="moto51" type="moto_motorcycle" depart="299.22" departLane="best" from="126518384#3" to="31349141#1"/>
    <trip id="moto52" type="moto_motorcycle" depart="305.09" departLane="best" from="100282267#0" to="-28911136"/>
    <trip id="moto53" type="moto_motorcycle" depart="310.95" departLane="best" from="881045792#2" to="27197944#2"/>
    <trip id="moto54" type="moto_motorcycle" depart="316.82" departLane="best" from="27155618#2" to="27162957"/>
    <trip id="moto55" type="moto_motorcycle" depart="322.69" departLane="best" from="35726568#4" to="31349214#0"/>
    <trip id="moto56" type="moto_motorcycle" depart="328.55" departLane="best" from="89344603#0" to="-27185044#7"/>
    <trip id="moto57" type="moto_motorcycle" depart="334.42" departLane="best" from="-625747350#0" to="27161534#2"/>
    <trip id="moto58" type="moto_motorcycle" depart="340.29" departLane="best" from="99404704#1" to="625747350#0"/>
    <trip id="moto60" type="moto_motorcycle" depart="352.02" departLane="best" from="625791616" to="-625796127#8"/>
    <trip id="moto61" type="moto_motorcycle" depart="357.89" departLane="best" from="27161561#2" to="158649609#0"/>
    <trip id="moto62" type="moto_motorcycle" depart="363.76" departLane="best" from="27155602" to="-27155625#0"/>
    <trip id="moto63" type="moto_motorcycle" depart="369.62" departLane="best" from="188590924#7" to="592744819#0"/>
    <trip id="moto64" type="moto_motorcycle" depart="375.49" departLane="best" from="27155656#3" to="27155654#1"/>
    <trip id="moto65" type="moto_motorcycle" depart="381.36" departLane="best" from="89138516#2" to="905034710"/>
    <trip id="moto66" type="moto_motorcycle" depart="387.22" departLane="best" from="27185044#4" to="35816703#0"/>
    <trip id="moto67" type="moto_motorcycle" depart="393.09" departLane="best" from="-29333762" to="207175859"/>
    <trip id="moto68" type="moto_motorcycle" depart="398.96" departLane="best" from="27185036#1" to="512876418#0"/>
    <trip id="moto69" type="moto_motorcycle" depart="404.83" departLane="best" from="27184960#2" to="625794560#1"/>
    <trip id="moto70" type="moto_motorcycle" depart="410.69" departLane="best" departSpeed="max" from="27197945" to="31349231#1"/>
    <trip id="moto71" type="moto_motorcycle" depart="416.56" departLane="best" departSpeed="max" from="124416224#0" to="-27197946#0"/>
    <trip id="moto72" type="moto_motorcycle" depart="422.43" departLane="best" departSpeed="max" from="625981307#0" to="202272064#0"/>
    <trip id="moto73" type="moto_motorcycle" depart="428.29" departLane="best" departSpeed="max" from="27197945" to="28990928#4"/>
    <trip id="moto74" type="moto_motorcycle" depart="434.16" departLane="best" from="27185002#2" to="89133429#2"/>
    <trip id="moto75" type="moto_motorcycle" depart="440.03" departLane="best" from="-702674937#0" to="35729028#2"/>
    <trip id="moto76" type="moto_motorcycle" depart="445.90" departLane="best" from="29333757#8" to="207727515"/>
    <trip id="moto77" type="moto_motorcycle" depart="451.76" departLane="best" from="207175836#0" to="512876473"/>
    <trip id="moto78" type="moto_motorcycle" depart="457.63" departLane="best" from="-27155639#0" to="27161563#1"/>
    <trip id="moto79" type="moto_motorcycle" depart="463.50" departLane="best" from="99404704#0" to="905034711"/>
    <trip id="moto80" type="moto_motorcycle" depart="469.36" departLane="best" from="-27155639#1" to="158649608#1"/>
    <trip id="moto81" type="moto_motorcycle" depart="475.23" departLane="best" from="188590924#7" to="89133429#0"/>
    <trip id="moto82" type="moto_motorcycle" depart="481.10" departLane="best" from="625796127#1" to="625796130#0"/>
    <trip id="moto83" type="moto_motorcycle" depart="486.96" departLane="best" from="25586775#6" to="-592750767#0"/>
    <trip id="moto84" type="moto_motorcycle" depart="492.83" departLane="best" from="613153190#1" to="33757098#7"/>
    <trip id="moto85" type="moto_motorcycle" depart="498.70" departLane="best" from="27201535#0" to="89344643#2"/>
    <trip id="moto86" type="moto_motorcycle" depart="504.57" departLane="best" from="29077579#7" to="-195293323#4"/>
    <trip id="moto87" type="moto_motorcycle" depart="510.43" departLane="best" from="-27197940#0" to="-27197940#0"/>
    <trip id="moto88" type="moto_motorcycle" depart="516.30" departLane="best" from="-27185041#1" to="27197915#6"/>
    <trip id="moto89" type="moto_motorcycle" depart="522.17" departLane="best" from="33570257#2" to="133287897#0"/>
    <trip id="moto90" type="moto_motorcycle" depart="528.03" departLane="best" from="28990915#4" to="204254787#1"/>
    <trip id="moto91" type="moto_motorcycle" depart="533.90" departLane="best" from="27161563#3" to="675523451#4"/>
    <trip id="moto92" type="moto_motorcycle" depart="539.77" departLane="best" from="625747352#1" to="-27185041#1"/>
    <trip id="moto93" type="moto_motorcycle" depart="545.63" departLane="best" from="35817302#2" to="27197915#3"/>
    <trip id="moto95" type="moto_motorcycle" depart="557.37" departLane="best" from="628992544#0" to="27197906#1"/>
    <trip id="moto96" type="moto_motorcycle" depart="563.24" departLane="best" from="625714305" to="27197983#3"/>
    <trip id="moto97" type="moto_motorcycle" depart="569.10" departLane="best" from="-27201541#1" to="-27201539#1"/>
    <trip id="moto99" type="moto_motorcycle" depart="580.84" departLane="best" from="592744819#13" to="625796122#11"/>
    <trip id="moto100" type="moto_motorcycle" depart="586.70" departLane="best" from="627447204#2" to="133287897#9"/>
    <trip id="moto101" type="moto_motorcycle" depart="592.57" departLane="best" from="592744589#0" to="625985015#1"/>
    <trip id="moto102" type="moto_motorcycle" depart="598.44" departLane="best" from="625796121" to="89344570#1"/>
    <trip id="moto103" type="moto_motorcycle" depart="604.31" departLane="best" from="592750776#0" to="625981289#2"/>
    <trip id="moto104" type="moto_motorcycle" depart="610.17" departLane="best" from="-207175836#13" to="38985003"/>
    <trip id="moto105" type="moto_motorcycle" depart="616.04" departLane="best" from="207727520" to="881045792#1"/>
    <trip id="moto106" type="moto_motorcycle" depart="621.91" departLane="best" from="592748994" to="625796122#8"/>
    <trip id="moto107" type="moto_motorcycle" depart="627.77" departLane="best" from="592750773" to="204254789"/>
    <trip id="moto108" type="moto_motorcycle" depart="633.64" departLane="best" from="592744813#1" to="-27197916#2"/>
    <trip id="moto109" type="moto_motorcycle" depart="639.51" departLane="best" from="625796123#1" to="625796121"/>
    <trip id="moto110" type="moto_motorcycle" depart="645.37" departLane="best" from="124414523#3" to="592750783#2"/>
    <trip id="moto111" type="moto_motorcycle" depart="651.24" departLane="best" from="-207175836#11" to="124414546#5"/>
    <trip id="moto112" type="moto_motorcycle" depart="657.11" departLane="best" from="207175859" to="625796122#8"/>
    <trip id="moto113" type="moto_motorcycle" depart="662.98" departLane="best" from="89344596#0" to="27185057#1"/>
    <trip id="moto114" type="moto_motorcycle" depart="668.84" departLane="best" from="89323202#0" to="204254788#5"/>
    <trip id="moto115" type="moto_motorcycle" depart="674.71" departLane="best" from="35726568#3" to="208585047#1"/>
    <trip id="moto116" type="moto_motorcycle" depart="680.58" departLane="best" from="27197983#2" to="27185022#1"/>
    <trip id="moto117" type="moto_motorcycle" depart="686.44" departLane="best" from="177364949#2" to="35557075#4"/>
    <trip id="moto118" type="moto_motorcycle" depart="692.31" departLane="best" from="-158649608#0" to="706725198"/>
    <trip id="moto119" type="moto_motorcycle" depart="698.18" departLane="best" from="27185022#3" to="35816703#2"/>
    <trip id="moto120" type="moto_motorcycle" depart="704.04" departLane="best" from="35834744#1" to="31349141#4"/>
    <trip id="moto121" type="moto_motorcycle" depart="709.91" departLane="best" from="33757098#3" to="207727515"/>
    <trip id="moto122" type="moto_motorcycle" depart="715.78" departLane="best" from="627447207#2" to="28990919#3"/>
    <trip id="moto123" type="moto_motorcycle" depart="721.65" departLane="best" from="27155644#2" to="158649609#0"/>
    <trip id="moto124" type="moto_motorcycle" depart="727.51" departLane="best" from="27155684#0" to="668999817#1"/>
    <trip id="moto125" type="moto_motorcycle" depart="733.38" departLane="best" from="-27161563#1" to="27185036#1"/>
    <trip id="moto126" type="moto_motorcycle" depart="739.25" departLane="best" from="28990915#2" to="25585669#5"/>
    <trip id="moto127" type="moto_motorcycle" depart="745.11" departLane="best" from="592750782#0" to="512876472"/>
    <trip id="moto128" type="moto_motorcycle" depart="750.98" departLane="best" departSpeed="max" from="-625985017#2" to="-207175836#6"/>
    <trip id="moto129" type="moto_motorcycle" depart="756.85" departLane="best" from="133287897#6" to="27182765#0"/>
    <trip id="moto130" type="moto_motorcycle" depart="762.72" departLane="best" from="-625796127#1" to="33569520#2"/>
    <trip id="moto131" type="moto_motorcycle" depart="768.58" departLane="best" from="29077605#0" to="-195293323#11"/>
    <trip id="moto132" type="moto_motorcycle" depart="774.45" departLane="best" from="441628566" to="592744472#0"/>
    <trip id="moto133" type="moto_motorcycle" depart="780.32" departLane="best" from="-27185041#0" to="27155656#1"/>
    <trip id="moto134" type="moto_motorcycle" depart="786.18" departLane="best" from="158649608#0" to="625794555#1"/>
    <trip id="moto135" type="moto_motorcycle" depart="792.05" departLane="best" from="27155660#0" to="592750768"/>
    <trip id="moto136" type="moto_motorcycle" depart="797.92" departLane="best" from="29333757#10" to="89344643#3"/>
    <trip id="moto137" type="moto_motorcycle" depart="803.78" departLane="best" from="625981307#1" to="28990915#3"/>
    <trip id="moto138" type="moto_motorcycle" depart="809.65" departLane="best" from="592750800#8" to="27197907#1"/>
    <trip id="moto139" type="moto_motorcycle" depart="815.52" departLane="best" from="627447202#0" to="46105458#0"/>
    <trip id="moto140" type="moto_motorcycle" depart="821.39" departLane="best" from="27155686" to="204213935#2"/>
    <trip id="moto141" type="moto_motorcycle" depart="827.25" departLane="best" from="149667988" to="291429626#2"/>
    <trip id="moto142" type="moto_motorcycle" depart="833.12" departLane="best" from="27201582#2" to="204638676"/>
    <trip id="moto143" type="moto_motorcycle" depart="838.99" departLane="best" from="-27155651#1" to="207175836#13"/>
    <trip id="moto144" type="moto_motorcycle" depart="844.85" departLane="best" from="195291266#3" to="209204306"/>
    <trip id="moto145" type="moto_motorcycle" depart="850.72" departLane="best" from="27185033#1" to="-33569574"/>
    <trip id="moto146" type="moto_motorcycle" depart="856.59" departLane="best" from="124414559#1" to="33569509#1"/>
    <trip id="moto147" type="moto_motorcycle" depart="862.45" departLane="best" from="31484454#0" to="-27155639#0"/>
    <trip id="moto148" type="moto_motorcycle" depart="868.32" departLane="best" from="27155613#0" to="133287897#4"/>
    <trip id="moto149" type="moto_motorcycle" depart="874.19" departLane="best" from="27197916#8" to="33569520#0"/>
    <trip id="moto150" type="moto_motorcycle" depart="880.06" departLane="best" from="625794558#1" to="592738914#2"/>
    <trip id="moto151" type="moto_motorcycle" depart="885.92" departLane="best" from="27155513#1" to="-195293323#13"/>
    <trip id="moto152" type="moto_motorcycle" depart="891.79" departLane="best" from="221652894#2" to="512876474#3"/>
    <trip id="moto153" type="moto_motorcycle" depart="897.66" departLane="best" from="625794555#0" to="89138502#8"/>
    <trip id="moto154" type="moto_motorcycle" depart="903.52" departLane="best" from="27185039#1" to="27201582#3"/>
    <trip id="moto155" type="moto_motorcycle" depart="909.39" departLane="best" from="207727531" to="31349261#0"/>
    <trip id="moto156" type="moto_motorcycle" depart="915.26" departLane="best" departSpeed="max" from="27201549#0" to="-207175851#2"/>
    <trip id="moto157" type="moto_motorcycle" depart="921.13" departLane="best" from="-207175836#8" to="29240550#3"/>
    <trip id="moto158" type="moto_motorcycle" depart="926.99" departLane="best" from="-27155611#1" to="27155610#0"/>
    <trip id="moto159" type="moto_motorcycle" depart="932.86" departLane="best" from="-89344651#0" to="23290865#2"/>
    <trip id="moto160" type="moto_motorcycle" depart="938.73" departLane="best" from="442766151" to="625714307#2"/>
    <trip id="moto161" type="moto_motorcycle" depart="944.59" departLane="best" from="159008541" to="-27162961#3"/>
    <trip id="moto162" type="moto_motorcycle" depart="950.46" departLane="best" departSpeed="max" from="-204539429" to="27185387"/>
    <trip id="moto163" type="moto_motorcycle" depart="956.33" departLane="best" from="99404704#3" to="27155511"/>
    <trip id="moto164" type="moto_motorcycle" depart="962.19" departLane="best" from="29077579#0" to="592744817#0"/>
    <trip id="moto165" type="moto_motorcycle" depart="968.06" departLane="best" from="29077579#3" to="512876474#5"/>
    <trip id="moto166" type="moto_motorcycle" depart="973.93" departLane="best" from="-204638701#1" to="-592739057#1"/>
    <trip id="moto167" type="moto_motorcycle" depart="979.80" departLane="best" from="-27197916#4" to="31349141#2"/>
    <trip id="moto168" type="moto_motorcycle" depart="985.66" departLane="best" from="27185382#1" to="178361781"/>
    <trip id="moto169" type="moto_motorcycle" depart="991.53" departLane="best" from="31349266#1" to="592739057#0"/>
    <trip id="moto170" type="moto_motorcycle" depart="997.40" departLane="best" departSpeed="max" from="-35817157" to="28911136"/>
    <trip id="moto171" type="moto_motorcycle" depart="1003.26" departLane="best" from="-27185043#2" to="-207175851#1"/>
    <trip id="moto172" type="moto_motorcycle" depart="1009.13" departLane="best" from="204638701#2" to="31349259#0"/>
    <trip id="moto174" type="moto_motorcycle" depart="1020.86" departLane="best" from="33569531#1" to="-27161563#2"/>
    <trip id="moto175" type="moto_motorcycle" depart="1026.73" departLane="best" from="31349156#1" to="29027150#8"/>
    <trip id="moto176" type="moto_motorcycle" depart="1032.60" departLane="best" departSpeed="max" from="-27185017#1" to="592744589#2"/>
    <trip id="moto177" type="moto_motorcycle" depart="1038.47" departLane="best" departSpeed="max" from="-27185402#7" to="89344603#0"/>
    <trip id="moto178" type="moto_motorcycle" depart="1044.33" departLane="best" from="27155627#0" to="27155608#0"/>
    <trip id="moto179" type="moto_motorcycle" depart="1050.20" departLane="best" departSpeed="max" from="27184963#0" to="27152904#0"/>
    <trip id="moto180" type="moto_motorcycle" depart="1056.07" departLane="best" from="625791618" to="592750800#4"/>
    <trip id="moto181" type="moto_motorcycle" depart="1061.93" departLane="best" from="28990919#2" to="625714305"/>
    <trip id="moto182" type="moto_motorcycle" depart="1067.80" departLane="best" from="31520107#0" to="27155668#1"/>
    <trip id="moto183" type="moto_motorcycle" depart="1073.67" departLane="best" from="195291266#0" to="592750778#0"/>
    <trip id="moto184" type="moto_motorcycle" depart="1079.54" departLane="best" from="27185022#3" to="27184965#1"/>
    <trip id="moto185" type="moto_motorcycle" depart="1085.40" departLane="best" from="27155639#0" to="373538897"/>
    <trip id="moto186" type="moto_motorcycle" depart="1091.27" departLane="best" from="188907682#0" to="625794559"/>
    <trip id="moto187" type="moto_motorcycle" depart="1097.14" departLane="best" from="592750800#8" to="-27185017#0"/>
    <trip id="moto188" type="moto_motorcycle" depart="1103.00" departLane="best" from="625796127#2" to="195293323#6"/>
    <trip id="moto189" type="moto_motorcycle" depart="1108.87" departLane="best" from="27155668#1" to="28990896#2"/>
    <trip id="moto190" type="moto_motorcycle" depart="1114.74" departLane="best" from="-89344651#0" to="592750763#1"/>
    <trip id="moto191" type="moto_motorcycle" depart="1120.60" departLane="best" from="31349303" to="204638691#1"/>
    <trip id="moto192" type="moto_motorcycle" depart="1126.47" departLane="best" from="-204156084#0" to="89138491"/>
    <trip id="moto193" type="moto_motorcycle" depart="1132.34" departLane="best" from="27161563#3" to="592738106#1"/>
    <trip id="moto194" type="moto_motorcycle" depart="1138.21" departLane="best" from="31349156#1" to="29333757#10"/>
    <trip id="moto195" type="moto_motorcycle" depart="1144.07" departLane="best" from="27161568#3" to="592749796#0"/>
    <trip id="moto196" type="moto_motorcycle" depart="1149.94" departLane="best" from="-27162961#1" to="188590917#1"/>
    <trip id="moto197" type="moto_motorcycle" depart="1155.81" departLane="best" from="31349214#1" to="207727947#1"/>
    <trip id="moto198" type="moto_motorcycle" depart="1161.67" departLane="best" from="31484392#1" to="204274849"/>
    <trip id="moto199" type="moto_motorcycle" depart="1167.54" departLane="best" from="-625747350#4" to="-27197945"/>
    <trip id="moto200" type="moto_motorcycle" depart="1173.41" departLane="best" from="27185021" to="592738910"/>
    <trip id="moto201" type="moto_motorcycle" depart="1179.27" departLane="best" from="27161558" to="35817302#0"/>
    <trip id="moto202" type="moto_motorcycle" depart="1185.14" departLane="best" from="89344560#0" to="27185043#1"/>
    <trip id="moto203" type="moto_motorcycle" depart="1191.01" departLane="best" from="-625796127#0" to="188590924#2"/>
    <trip id="moto204" type="moto_motorcycle" depart="1196.88" departLane="best" from="27185017#0" to="204638676"/>
    <trip id="moto205" type="moto_motorcycle" depart="1202.74" departLane="best" from="89344551#1" to="27197915#6"/>
    <trip id="moto206" type="moto_motorcycle" depart="1208.61" departLane="best" from="31349261#1" to="-27197983#6"/>
    <trip id="moto207" type="moto_motorcycle" depart="1214.48" departLane="best" from="625796122#5" to="27184993#2"/>
    <trip id="moto208" type="moto_motorcycle" depart="1220.34" departLane="best" from="625796123#2" to="27197948#2"/>
    <trip id="moto209" type="moto_motorcycle" depart="1226.21" departLane="best" from="27155680#0" to="27155680#0"/>
    <trip id="moto210" type="moto_motorcycle" depart="1232.08" departLane="best" from="27185057#1" to="207727529#1"/>
    <trip id="moto211" type="moto_motorcycle" depart="1237.95" departLane="best" from="512876474#5" to="27210271#2"/>
    <trip id="moto212" type="moto_motorcycle" depart="1243.81" departLane="best" from="27185002#2" to="27161543#0"/>
    <trip id="moto213" type="moto_motorcycle" depart="1249.68" departLane="best" from="89344656#2" to="207727529#3"/>
    <trip id="moto214" type="moto_motorcycle" depart="1255.55" departLane="best" from="27201542#2" to="28990896#1"/>
    <trip id="moto215" type="moto_motorcycle" depart="1261.41" departLane="best" from="-89134972#0" to="149667989"/>
    <trip id="moto217" type="moto_motorcycle" depart="1273.15" departLane="best" departSpeed="max" from="-37524424" to="-27161563#0"/>
    <trip id="moto218" type="moto_motorcycle" depart="1279.01" departLane="best" from="27197944#2" to="207175851#10"/>
    <trip id="moto219" type="moto_motorcycle" depart="1284.88" departLane="best" from="124414559#1" to="35557074#2"/>
    <trip id="moto220" type="moto_motorcycle" depart="1290.75" departLane="best" from="592744813#2" to="29027150#3"/>
    <trip id="moto221" type="moto_motorcycle" depart="1296.62" departLane="best" from="291429627" to="89133429#1"/>
    <trip id="moto222" type="moto_motorcycle" depart="1302.48" departLane="best" from="29027150#4" to="682881613#1"/>
    <trip id="moto223" type="moto_motorcycle" depart="1308.35" departLane="best" departSpeed="max" from="592750800#0" to="-27155678"/>
    <trip id="moto224" type="moto_motorcycle" depart="1314.22" departLane="best" departSpeed="max" from="-35816805" to="208585043#0"/>
    <trip id="moto225" type="moto_motorcycle" depart="1320.08" departLane="best" from="31349141#4" to="33570257#2"/>
    <trip id="moto226" type="moto_motorcycle" depart="1325.95" departLane="best" from="89133447#1" to="27185005"/>
    <trip id="moto227" type="moto_motorcycle" depart="1331.82" departLane="best" from="27162954#1" to="-27162961#1"/>
    <trip id="moto228" type="moto_motorcycle" depart="1337.69" departLane="best" from="-27155526#0" to="27155663"/>
    <trip id="moto229" type="moto_motorcycle" depart="1343.55" departLane="best" departSpeed="max" from="-27162958" to="89323202#4"/>
    <trip id="moto230" type="moto_motorcycle" depart="1349.42" departLane="best" from="625714306#4" to="27197948#4"/>
    <trip id="moto232" type="moto_motorcycle" depart="1361.15" departLane="best" from="682923255#1" to="114797599#0"/>
    <trip id="moto233" type="moto_motorcycle" depart="1367.02" departLane="best" from="27197921#0" to="29077605#1"/>
    <trip id="moto234" type="moto_motorcycle" depart="1372.89" departLane="best" from="208585050#0" to="25585669#1"/>
    <trip id="moto235" type="moto_motorcycle" depart="1378.75" departLane="best" from="29333757#5" to="625796120#0"/>
    <trip id="moto236" type="moto_motorcycle" depart="1384.62" departLane="best" from="207727508#0" to="33569509#1"/>
    <trip id="moto237" type="moto_motorcycle" depart="1390.49" departLane="best" from="204156094#0" to="89138488#0"/>
    <trip id="moto238" type="moto_motorcycle" depart="1396.36" departLane="best" from="592750778#0" to="27197915#0"/>
    <trip id="moto239" type="moto_motorcycle" depart="1402.22" departLane="best" from="89344643#3" to="29333786#6"/>
    <trip id="moto240" type="moto_motorcycle" depart="1408.09" departLane="best" from="50825348#0" to="29027150#3"/>
    <trip id="moto241" type="moto_motorcycle" depart="1413.96" departLane="best" from="512876470#1" to="133287897#0"/>
    <trip id="moto242" type="moto_motorcycle" depart="1419.82" departLane="best" departSpeed="max" from="-27185402#7" to="89344551#0"/>
    <trip id="moto243" type="moto_motorcycle" depart="1425.69" departLane="best" from="-33515305#0" to="27197915#2"/>
    <trip id="moto244" type="moto_motorcycle" depart="1431.56" departLane="best" from="27185043#2" to="-27185043#2"/>
    <trip id="moto245" type="moto_motorcycle" depart="1437.42" departLane="best" from="89344664#0" to="682923256#2"/>
    <trip id="moto246" type="moto_motorcycle" depart="1443.29" departLane="best" from="592750806#2" to="27185003#0"/>
    <trip id="moto247" type="moto_motorcycle" depart="1449.16" departLane="best" from="33569574" to="27185018"/>
    <trip id="moto248" type="moto_motorcycle" depart="1455.03" departLane="best" from="195293321#2" to="625714314"/>