<?xml version="1.0" encoding="UTF-8"?>
<!-- generated on 2021-11-01 13:46:25.209260 by $Id$ v1_10_0+0000-83496a5972
  options: 
-->
<routes xmlns:xsi="http://www.w3.org/2001/XMLSchema-instance" xsi:noNamespaceSchemaLocation="http://sumo.dlr.de/xsd/routes_file.xsd">
    <vType id="ped_pedestrian" vClass="pedestrian"/>
    <person id="ped0" depart="0.00" type="ped_pedestrian">
        <walk from="35817372" to="-209205075#2"/>
    </person>
    <person id="ped1" depart="1.86" type="ped_pedestrian">
        <walk from="592750800#6" to="512876419"/>
    </person>
    <person id="ped2" depart="3.71" type="ped_pedestrian">
        <walk from="703116340#0" to="-27197983#2"/>
    </person>
    <person id="ped3" depart="5.57" type="ped_pedestrian">
        <walk from="27155669#1" to="-27155546#0"/>
    </person>
    <person id="ped4" depart="7.43" type="ped_pedestrian">
        <walk from="-703815043#10" to="27195012#3"/>
    </person>
    <person id="ped5" depart="9.29" type="ped_pedestrian">
        <walk from="-241560355#3" to="-702100710#1"/>
    </person>
    <person id="ped6" depart="11.14" type="ped_pedestrian">
        <walk from="402000694#1" to="28990896#2"/>
    </person>
    <person id="ped7" depart="13.00" type="ped_pedestrian">
        <walk from="679917466#7" to="-195293323#3"/>
    </person>
    <person id="ped8" depart="14.86" type="ped_pedestrian">
        <walk from="675528456#1" to="592744589#0"/>
    </person>
    <person id="ped9" depart="16.72" type="ped_pedestrian">
        <walk from="209204306" to="-625796125#3"/>
    </person>
    <person id="ped10" depart="18.57" type="ped_pedestrian">
        <walk from="89134972#1" to="208585050#1"/>
    </person>
    <person id="ped11" depart="20.43" type="ped_pedestrian">
        <walk from="-28990958" to="-31347617#2"/>
    </person>
    <person id="ped12" depart="22.29" type="ped_pedestrian">
        <walk from="700188907#0" to="33569520#1"/>
    </person>
    <person id="ped13" depart="24.15" type="ped_pedestrian">
        <walk from="676379290#1" to="592750781#1"/>
    </person>
    <person id="ped14" depart="26.00" type="ped_pedestrian">
        <walk from="697557645" to="35729028#4"/>
    </person>
    <person id="ped15" depart="27.86" type="ped_pedestrian">
        <walk from="700289801" to="29348547#1"/>
    </person>
    <person id="ped16" depart="29.72" type="ped_pedestrian">
        <walk from="592744817#2" to="-27155637"/>
    </person>
    <person id="ped17" depart="31.58" type="ped_pedestrian">
        <walk from="-27197921#1" to="100282308#1"/>
    </person>
    <person id="ped18" depart="33.43" type="ped_pedestrian">
        <walk from="-356990111" to="195293323#14"/>
    </person>
    <person id="ped19" depart="35.29" type="ped_pedestrian">
        <walk from="35817163#0" to="27155506"/>
    </person>
    <person id="ped20" depart="37.15" type="ped_pedestrian">
        <walk from="27155525#2" to="-703057685"/>
    </person>
    <person id="ped21" depart="39.00" type="ped_pedestrian">
        <walk from="38985121" to="34943846"/>
    </person>
    <person id="ped22" depart="40.86" type="ped_pedestrian">
        <walk from="-682923255#0" to="592750780#3"/>
    </person>
    <person id="ped23" depart="42.72" type="ped_pedestrian">
        <walk from="-675523450#0" to="27155595#1"/>
    </person>
    <person id="ped24" depart="44.58" type="ped_pedestrian">
        <walk from="89344658#0" to="35834681#1"/>
    </person>
    <person id="ped25" depart="46.43" type="ped_pedestrian">
        <walk from="698930821#1" to="627447201#3"/>
    </person>
    <person id="ped26" depart="48.29" type="ped_pedestrian">
        <walk from="207175836#13" to="188590918#4"/>
    </person>
    <person id="ped27" depart="50.15" type="ped_pedestrian">
        <walk from="-703057692#1" to="813259025#0"/>
    </person>
    <person id="ped28" depart="52.01" type="ped_pedestrian">
        <walk from="702993811" to="207175836#10"/>
    </person>
    <person id="ped29" depart="53.86" type="ped_pedestrian">
        <walk from="708566978#0" to="27184962#0"/>
    </person>
    <person id="ped30" depart="55.72" type="ped_pedestrian">
        <walk from="188590915#0" to="133287897#11"/>
    </person>
    <person id="ped31" depart="57.58" type="ped_pedestrian">
        <walk from="29077664#1" to="177364949#1"/>
    </person>
    <person id="ped32" depart="59.44" type="ped_pedestrian">
        <walk from="31349141#3" to="703815031"/>
    </person>
    <person id="ped33" depart="61.29" type="ped_pedestrian">
        <walk from="27155627#0" to="-703815043#2"/>
    </person>
    <person id="ped34" depart="63.15" type="ped_pedestrian">
        <walk from="969248102" to="27197915#3"/>
    </person>
    <person id="ped35" depart="65.01" type="ped_pedestrian">
        <walk from="-39597182" to="35816805"/>
    </person>
    <person id="ped36" depart="66.87" type="ped_pedestrian">
        <walk from="660624000#3" to="27155669#1"/>
    </person>
    <person id="ped37" depart="68.72" type="ped_pedestrian">
        <walk from="-27185022#0" to="27155603"/>
    </person>
    <person id="ped38" depart="70.58" type="ped_pedestrian">
        <walk from="891674950" to="700289799"/>
    </person>
    <person id="ped39" depart="72.44" type="ped_pedestrian">
        <walk from="-204213939" to="592750764#3"/>
    </person>
    <person id="ped40" depart="74.29" type="ped_pedestrian">
        <walk from="533662023" to="27201570#1"/>
    </person>
    <person id="ped41" depart="76.15" type="ped_pedestrian">
        <walk from="188590918#0" to="35834682#0"/>
    </person>
    <person id="ped42" depart="78.01" type="ped_pedestrian">
        <walk from="-458511245" to="27161543#0"/>
    </person>
    <person id="ped43" depart="79.87" type="ped_pedestrian">
        <walk from="27162978#0" to="89133447#3"/>
    </person>
    <person id="ped44" depart="81.72" type="ped_pedestrian">
        <walk from="702674937#0" to="177367341"/>
    </person>
    <person id="ped45" depart="83.58" type="ped_pedestrian">
        <walk from="708566976#6" to="702100700#0"/>
    </person>
    <person id="ped46" depart="85.44" type="ped_pedestrian">
        <walk from="204254793#0" to="35817302#2"/>
    </person>
    <person id="ped47" depart="87.30" type="ped_pedestrian">
        <walk from="33758110" to="-625747350#2"/>
    </person>
    <person id="ped48" depart="89.15" type="ped_pedestrian">
        <walk from="625796123#2" to="27201584#1"/>
    </person>
    <person id="ped49" depart="91.01" type="ped_pedestrian">
        <walk from="627447205#1" to="27201535#2"/>
    </person>
    <person id="ped50" depart="92.87" type="ped_pedestrian">
        <walk from="-114797588#1" to="207727511"/>
    </person>
    <person id="ped51" depart="94.73" type="ped_pedestrian">
        <walk from="-207175851#2" to="708567001"/>
    </person>
    <person id="ped52" depart="96.58" type="ped_pedestrian">
        <walk from="702993822" to="697557668#1"/>
    </person>
    <person id="ped53" depart="98.44" type="ped_pedestrian">
        <walk from="204638691#1" to="-27162961#2"/>
    </person>
    <person id="ped54" depart="100.30" type="ped_pedestrian">
        <walk from="702993818#2" to="847196832"/>
    </person>
    <person id="ped55" depart="102.16" type="ped_pedestrian">
        <walk from="-27197951#0" to="27185039#3"/>
    </person>
    <person id="ped56" depart="104.01" type="ped_pedestrian">
        <walk from="-27185052" to="625796122#6"/>
    </person>
    <person id="ped57" depart="105.87" type="ped_pedestrian">
        <walk from="625796125#3" to="-592744817#0"/>
    </person>
    <person id="ped58" depart="107.73" type="ped_pedestrian">
        <walk from="27185010" to="28990928#3"/>
    </person>
    <person id="ped59" depart="109.59" type="ped_pedestrian">
        <walk from="188590916#0" to="702100706#0"/>
    </person>
    <person id="ped60" depart="111.44" type="ped_pedestrian">
        <walk from="27155670#1" to="-703057694#1"/>
    </person>
    <person id="ped61" depart="113.30" type="ped_pedestrian">
        <walk from="27201584#1" to="592750781#2"/>
    </person>
    <person id="ped62" depart="115.16" type="ped_pedestrian">
        <walk from="-702993811" to="204644470#1"/>
    </person>
    <person id="ped63" depart="117.01" type="ped_pedestrian">
        <walk from="968599048" to="402000694#1"/>
    </person>
    <person id="ped64" depart="118.87" type="ped_pedestrian">
        <walk from="27161561#2" to="27197939#0"/>
    </person>
    <person id="ped65" depart="120.73" type="ped_pedestrian">
        <walk from="-592739089#2" to="-89133453#1"/>
    </person>
    <person id="ped66" depart="122.59" type="ped_pedestrian">
        <walk from="209200743#0" to="31349231#4"/>
    </person>
    <person id="ped67" depart="124.44" type="ped_pedestrian">
        <walk from="-968599047" to="-703815043#6"/>
    </person>
    <person id="ped68" depart="126.30" type="ped_pedestrian">
        <walk from="-27185402#2" to="35816898"/>
    </person>
    <person id="ped69" depart="128.16" type="ped_pedestrian">
        <walk from="-89344651#1" to="703840946#1"/>
    </person>
    <person id="ped70" depart="130.02" type="ped_pedestrian">
        <walk from="700289778#1" to="-27185402#2"/>
    </person>
    <person id="ped71" depart="131.87" type="ped_pedestrian">
        <walk from="124414536#0" to="46692018#0"/>
    </person>
    <person id="ped72" depart="133.73" type="ped_pedestrian">
        <walk from="-703116343#0" to="-592744819#5"/>
    </person>
    <person id="ped73" depart="135.59" type="ped_pedestrian">
        <walk from="708568532" to="29333757#6"/>
    </person>
    <person id="ped74" depart="137.45" type="ped_pedestrian">
        <walk from="27185002#5" to="648430137#1"/>
    </person>
    <person id="ped75" depart="139.30" type="ped_pedestrian">
        <walk from="676379290#2" to="-702075568#0"/>
    </person>
    <person id="ped76" depart="141.16" type="ped_pedestrian">
        <walk from="-31520107#0" to="27155685#1"/>
    </person>
    <person id="ped77" depart="143.02" type="ped_pedestrian">
        <walk from="27155670#3" to="27184989#7"/>
    </person>
    <person id="ped78" depart="144.88" type="ped_pedestrian">
        <walk from="592750780#3" to="495628919"/>
    </person>
    <person id="ped79" depart="146.73" type="ped_pedestrian">
        <walk from="89344596#2" to="-33515305#0"/>
    </person>
    <person id="ped80" depart="148.59" type="ped_pedestrian">
        <walk from="700289801" to="133287897#8"/>
    </person>
    <person id="ped81" depart="150.45" type="ped_pedestrian">
        <walk from="-702075566#1" to="27162959"/>
    </person>
    <person id="ped82" depart="152.30" type="ped_pedestrian">
        <walk from="27155669#0" to="195293323#3"/>
    </person>
    <person id="ped83" depart="154.16" type="ped_pedestrian">
        <walk from="149667989" to="708566990#1"/>
    </person>
    <person id="ped84" depart="156.02" type="ped_pedestrian">
        <walk from="27162950#0" to="700289800#1"/>
    </person>
    <person id="ped85" depart="157.88" type="ped_pedestrian">
        <walk from="28990937#0" to="-27155667#0"/>
    </person>
    <person id="ped86" depart="159.73" type="ped_pedestrian">
        <walk from="99404704#0" to="697566882"/>
    </person>
    <person id="ped87" depart="161.59" type="ped_pedestrian">
        <walk from="891484635#1" to="708566997#0"/>
    </person>
    <person id="ped88" depart="163.45" type="ped_pedestrian">
        <walk from="700191531#0" to="-675523451#14"/>
    </person>
    <person id="ped89" depart="165.31" type="ped_pedestrian">
        <walk from="27185039#2" to="-703116339#0"/>
    </person>
    <person id="ped90" depart="167.16" type="ped_pedestrian">
        <walk from="27155631" to="-27162962"/>
    </person>
    <person id="ped91" depart="169.02" type="ped_pedestrian">
        <walk from="27155592" to="89344603#0"/>
    </person>
    <person id="ped92" depart="170.88" type="ped_pedestrian">
        <walk from="188590916#0" to="648430137#0"/>
    </person>
    <person id="ped93" depart="172.74" type="ped_pedestrian">
        <walk from="27162979#1" to="27155670#1"/>
    </person>
    <person id="ped94" depart="174.59" type="ped_pedestrian">
        <walk from="89134974#0" to="968599049"/>
    </person>
    <person id="ped95" depart="176.45" type="ped_pedestrian">
        <walk from="290408641#1" to="592750762#3"/>
    </person>
    <person id="ped96" depart="178.31" type="ped_pedestrian">
        <walk from="-625796125#1" to="204254788#6"/>
    </person>
    <person id="ped97" depart="180.17" type="ped_pedestrian">
        <walk from="891484635#1" to="29348882#8"/>
    </person>
    <person id="ped98" depart="182.02" type="ped_pedestrian">
        <walk from="27556282#2" to="625791611"/>
    </person>
    <person id="ped99" depart="183.88" type="ped_pedestrian">
        <walk from="27195009#3" to="700205162#0"/>
    </person>
    <person id="ped100" depart="185.74" type="ped_pedestrian">
        <walk from="-625796127#2" to="89138488#3"/>
    </person>
    <person id="ped101" depart="187.59" type="ped_pedestrian">
        <walk from="-27197921#2" to="-700205166#0"/>
    </person>
    <person id="ped102" depart="189.45" type="ped_pedestrian">
        <walk from="114797609" to="-592739057#1"/>
    </person>
    <person id="ped103" depart="191.31" type="ped_pedestrian">
        <walk from="703116336#2" to="133287897#10"/>
    </person>
    <person id="ped104" depart="193.17" type="ped_pedestrian">
        <walk from="31484336#7" to="35816648"/>
    </person>
    <person id="ped105" depart="195.02" type="ped_pedestrian">
        <walk from="27155663" to="31347617#2"/>
    </person>
    <person id="ped106" depart="196.88" type="ped_pedestrian">
        <walk from="27197948#5" to="708567013"/>
    </person>
    <person id="ped107" depart="198.74" type="ped_pedestrian">
        <walk from="-702993827" to="592750277#0"/>
    </person>
    <person id="ped108" depart="200.60" type="ped_pedestrian">
        <walk from="124414546#1" to="27155618#1"/>
    </person>
    <person id="ped109" depart="202.45" type="ped_pedestrian">
        <walk from="488446185#0" to="204254797#1"/>
    </person>
    <person id="ped110" depart="204.31" type="ped_pedestrian">
        <walk from="207175836#3" to="625794555#0"/>
    </person>
    <person id="ped111" depart="206.17" type="ped_pedestrian">
        <walk from="-27185402#7" to="27184960#2"/>
    </person>
    <person id="ped112" depart="208.03" type="ped_pedestrian">
        <walk from="969248104#1" to="968599051#1"/>
    </person>
    <person id="ped113" depart="209.88" type="ped_pedestrian">
        <walk from="-27195009#1" to="-703116333#1"/>
    </person>
    <person id="ped114" depart="211.74" type="ped_pedestrian">
        <walk from="188590916#0" to="708567009"/>
    </person>
    <person id="ped115" depart="213.60" type="ped_pedestrian">
        <walk from="703022017" to="702993823#2"/>
    </person>
    <person id="ped116" depart="215.46" type="ped_pedestrian">
        <walk from="27155525#0" to="-625796127#3"/>
    </person>
    <person id="ped117" depart="217.31" type="ped_pedestrian">
        <walk from="697566872" to="592744814#2"/>
    </person>
    <person id="ped118" depart="219.17" type="ped_pedestrian">
        <walk from="35557074#1" to="89344643#2"/>
    </person>
    <person id="ped119" depart="221.03" type="ped_pedestrian">
        <walk from="402001993" to="-195293323#9"/>
    </person>
    <person id="ped120" depart="222.88" type="ped_pedestrian">
        <walk from="682923256#0" to="204254795"/>
    </person>
    <person id="ped121" depart="224.74" type="ped_pedestrian">
        <walk from="-592746159#4" to="-592738106#0"/>
    </person>
    <person id="ped122" depart="226.60" type="ped_pedestrian">
        <walk from="-35834682#0" to="29027150#2"/>
    </person>
    <person id="ped123" depart="228.46" type="ped_pedestrian">
        <walk from="188592532#0" to="33569531#2"/>
    </person>
    <person id="ped124" depart="230.31" type="ped_pedestrian">
        <walk from="592750762#1" to="-702993824#0"/>
    </person>
    <person id="ped125" depart="232.17" type="ped_pedestrian">
        <walk from="35817157" to="178765947"/>
    </person>
    <person id="ped126" depart="234.03" type="ped_pedestrian">
        <walk from="27185043#1" to="703840946#1"/>
    </person>
    <person id="ped127" depart="235.89" type="ped_pedestrian">
        <walk from="700188892#1" to="-28911136"/>
    </person>
    <person id="ped128" depart="237.74" type="ped_pedestrian">
        <walk from="27155670#3" to="195291266#3"/>
    </person>
    <person id="ped129" depart="239.60" type="ped_pedestrian">
        <walk from="-195291266#0" to="625981289#1"/>
    </person>
    <person id="ped130" depart="241.46" type="ped_pedestrian">
        <walk from="35817163#5" to="177364948"/>
    </person>
    <person id="ped131" depart="243.32" type="ped_pedestrian">
        <walk from="625714306#0" to="28991253"/>
    </person>
    <person id="ped132" depart="245.17" type="ped_pedestrian">
        <walk from="27155680#1" to="-204213933"/>
    </person>
    <person id="ped133" depart="247.03" type="ped_pedestrian">
        <walk from="-27195014" to="703057670"/>
    </person>
    <person id="ped134" depart="248.89" type="ped_pedestrian">
        <walk from="703840924#1" to="28990915#1"/>
    </person>
    <person id="ped135" depart="250.75" type="ped_pedestrian">
        <walk from="697566875#1" to="31160479"/>
    </person>
    <person id="ped136" depart="252.60" type="ped_pedestrian">
        <walk from="-592750790#2" to="-592744814#0"/>
    </person>
    <person id="ped137" depart="254.46" type="ped_pedestrian">
        <walk from="204638701#0" to="703815043#11"/>
    </person>
    <person id="ped138" depart="256.32" type="ped_pedestrian">
        <walk from="660624888#2" to="700289799"/>
    </person>
    <person id="ped139" depart="258.17" type="ped_pedestrian">
        <walk from="703815043#11" to="-703057688#4"/>
    </person>
    <person id="ped140" depart="260.03" type="ped_pedestrian">
        <walk from="149667989" to="-35816703#1"/>
    </person>
    <person id="ped141" depart="261.89" type="ped_pedestrian">
        <walk from="627447208" to="703057676"/>
    </person>
    <person id="ped142" depart="263.75" type="ped_pedestrian">
        <walk from="27155643#2" to="35816691"/>
    </person>
    <person id="ped143" depart="265.60" type="ped_pedestrian">
        <walk from="-625796125#0" to="708567005#0"/>
    </person>
    <person id="ped144" depart="267.46" type="ped_pedestrian">
        <walk from="702075566#0" to="89323208#1"/>
    </person>
    <person id="ped145" depart="269.32" type="ped_pedestrian">
        <walk from="679917469" to="703022021#0"/>
    </person>
    <person id="ped146" depart="271.18" type="ped_pedestrian">
        <walk from="-209204306" to="592750800#7"/>
    </person>
    <person id="ped147" depart="273.03" type="ped_pedestrian">
        <walk from="208585045#4" to="708567006"/>
    </person>
    <person id="ped148" depart="274.89" type="ped_pedestrian">
        <walk from="675523451#12" to="702075564"/>
    </person>
    <person id="ped149" depart="276.75" type="ped_pedestrian">
        <walk from="648430143#1" to="-36963449#1"/>
    </person>
    <person id="ped150" depart="278.61" type="ped_pedestrian">
        <walk from="702100704#2" to="700289775#1"/>
    </person>
    <person id="ped151" depart="280.46" type="ped_pedestrian">
        <walk from="-82141955" to="682923255#1"/>
    </person>
    <person id="ped152" depart="282.32" type="ped_pedestrian">
        <walk from="27184963#1" to="204539427"/>
    </person>
    <person id="ped153" depart="284.18" type="ped_pedestrian">
        <walk from="-209200741#1" to="-702077207#1"/>
    </person>
    <person id="ped154" depart="286.04" type="ped_pedestrian">
        <walk from="207727529#3" to="702075566#0"/>
    </person>
    <person id="ped155" depart="287.89" type="ped_pedestrian">
        <walk from="89138523#2" to="195293323#5"/>
    </person>
    <person id="ped156" depart="289.75" type="ped_pedestrian">
        <walk from="35834744#0" to="27155627#1"/>
    </person>
    <person id="ped157" depart="291.61" type="ped_pedestrian">
        <walk from="89344570#1" to="27201549#1"/>
    </person>
    <person id="ped158" depart="293.47" type="ped_pedestrian">
        <walk from="787116713#1" to="-592738106#0"/>
    </person>
    <person id="ped159" depart="295.32" type="ped_pedestrian">
        <walk from="891667763" to="-700188900"/>
    </person>
    <person id="ped160" depart="297.18" type="ped_pedestrian">
        <walk from="89138502#0" to="188590916#2"/>
    </person>
    <person id="ped161" depart="299.04" type="ped_pedestrian">
        <walk from="-373538897" to="27161543#0"/>
    </person>
    <person id="ped162" depart="300.89" type="ped_pedestrian">
        <walk from="592750780#1" to="204644475"/>
    </person>
    <person id="ped163" depart="302.75" type="ped_pedestrian">
        <walk from="33570257#2" to="27197916#1"/>
    </person>
    <person id="ped164" depart="304.61" type="ped_pedestrian">
        <walk from="159002988#0" to="592744819#8"/>
    </person>
    <person id="ped165" depart="306.47" type="ped_pedestrian">
        <walk from="-158649609#0" to="708566995"/>
    </person>
    <person id="ped166" depart="308.32" type="ped_pedestrian">
        <walk from="27201582#2" to="592750763#1"/>
    </person>
    <person id="ped167" depart="310.18" type="ped_pedestrian">
        <walk from="625714307#0" to="46692047"/>
    </person>
    <person id="ped168" depart="312.04" type="ped_pedestrian">
        <walk from="27152963#1" to="-27185382#2"/>
    </person>
    <person id="ped169" depart="313.90" type="ped_pedestrian">
        <walk from="444604596" to="208585044#0"/>
    </person>
    <person id="ped170" depart="315.75" type="ped_pedestrian">
        <walk from="204644476" to="700188907#3"/>
    </person>
    <person id="ped171" depart="317.61" type="ped_pedestrian">
        <walk from="592750764#0" to="204254798#0"/>
    </person>
    <person id="ped172" depart="319.47" type="ped_pedestrian">
        <walk from="204638701#3" to="27155647#0"/>
    </person>
    <person id="ped173" depart="321.33" type="ped_pedestrian">
        <walk from="27155637" to="204254787#1"/>
    </person>
    <person id="ped174" depart="323.18" type="ped_pedestrian">
        <walk from="-592744814#0" to="27155667#0"/>
    </person>
    <person id="ped175" depart="325.04" type="ped_pedestrian">
        <walk from="810041561" to="512876470#1"/>
    </person>
    <person id="ped176" depart="326.90" type="ped_pedestrian">
        <walk from="703840911" to="35726568#5"/>
    </person>
    <person id="ped177" depart="328.76" type="ped_pedestrian">
        <walk from="204254799#0" to="28990919#3"/>
    </person>
    <person id="ped178" depart="330.61" type="ped_pedestrian">
        <walk from="-114797588#1" to="204156085#0"/>
    </person>
    <person id="ped179" depart="332.47" type="ped_pedestrian">
        <walk from="27155684#0" to="300212416"/>
    </person>
    <person id="ped180" depart="334.33" type="ped_pedestrian">
        <walk from="402002601" to="27184989#1"/>
    </person>
    <person id="ped181" depart="336.18" type="ped_pedestrian">
        <walk from="27161603#1" to="-703116339#0"/>
    </person>
    <person id="ped182" depart="338.04" type="ped_pedestrian">
        <walk from="27185003#0" to="703819814#0"/>
    </person>
    <person id="ped183" depart="339.90" type="ped_pedestrian">
        <walk from="-27197950#0" to="27197921#2"/>
    </person>
    <person id="ped184" depart="341.76" type="ped_pedestrian">
        <walk from="35817156#1" to="208585049#0"/>
    </person>
    <person id="ped185" depart="343.61" type="ped_pedestrian">
        <walk from="683527003" to="625794553"/>
    </person>
    <person id="ped186" depart="345.47" type="ped_pedestrian">
        <walk from="495628918#1" to="-89133453#1"/>
    </person>
    <person id="ped187" depart="347.33" type="ped_pedestrian">
        <walk from="-702100710#4" to="-209200745#1"/>
    </person>
    <person id="ped188" depart="349.19" type="ped_pedestrian">
        <walk from="133287895" to="27185010"/>
    </person>
    <person id="ped189" depart="351.04" type="ped_pedestrian">
        <walk from="27155656#0" to="35816875#0"/>
    </person>
    <person id="ped190" depart="352.90" type="ped_pedestrian">
        <walk from="-702100696#4" to="592744458#0"/>
    </person>
    <person id="ped191" depart="354.76" type="ped_pedestrian">
        <walk from="27185057#0" to="126518384#2"/>
    </person>
    <person id="ped192" depart="356.62" type="ped_pedestrian">
        <walk from="42161421" to="-195293323#13"/>
    </person>
    <person id="ped193" depart="358.47" type="ped_pedestrian">
        <walk from="625791644#2" to="625796130#0"/>
    </person>
    <person id="ped194" depart="360.33" type="ped_pedestrian">
        <walk from="-35817372" to="27155674#0"/>
    </person>
    <person id="ped195" depart="362.19" type="ped_pedestrian">
        <walk from="-698930819#0" to="89134975"/>
    </person>
    <person id="ped196" depart="364.05" type="ped_pedestrian">
        <walk from="27197939#2" to="-27155655"/>
    </person>
    <person id="ped197" depart="365.90" type="ped_pedestrian">
        <walk from="27182765#0" to="675523451#10"/>
    </person>
    <person id="ped198" depart="367.76" type="ped_pedestrian">
        <walk from="458511245" to="89344648"/>
    </person>
    <person id="ped199" depart="369.62" type="ped_pedestrian">
        <walk from="31484392#1" to="89133433"/>
    </person>
    <person id="ped200" depart="371.47" type="ped_pedestrian">
        <walk from="703116337#2" to="35557075#2"/>
    </person>
    <person id="ped201" depart="373.33" type="ped_pedestrian">
        <walk from="592750763#1" to="27195012#1"/>
    </person>
    <person id="ped202" depart="375.19" type="ped_pedestrian">
        <walk from="697557662#1" to="28990919#3"/>
    </person>
    <person id="ped203" depart="377.05" type="ped_pedestrian">
        <walk from="703815029" to="625714308#3"/>
    </person>
    <person id="ped204" depart="378.90" type="ped_pedestrian">
        <walk from="27185007" to="159008546#2"/>
    </person>
    <person id="ped205" depart="380.76" type="ped_pedestrian">
        <walk from="133287897#3" to="35817184"/>
    </person>
    <person id="ped206" depart="382.62" type="ped_pedestrian">
        <walk from="625796125#3" to="27197948#0"/>
    </person>
    <person id="ped207" depart="384.48" type="ped_pedestrian">
        <walk from="188590925#0" to="207175851#5"/>
    </person>
    <person id="ped208" depart="386.33" type="ped_pedestrian">
        <walk from="27210271#2" to="-592750762#2"/>
    </person>
    <person id="ped209" depart="388.19" type="ped_pedestrian">
        <walk from="-969248105" to="592744271"/>
    </person>
    <person id="ped210" depart="390.05" type="ped_pedestrian">
        <walk from="592744819#12" to="-27185022#3"/>
    </person>
    <person id="ped211" depart="391.91" type="ped_pedestrian">
        <walk from="27155644#3" to="27556289"/>
    </person>
    <person id="ped212" depart="393.76" type="ped_pedestrian">
        <walk from="27155656#4" to="-703057670"/>
    </person>
    <person id="ped213" depart="395.62" type="ped_pedestrian">
        <walk from="27155665" to="703840946#0"/>
    </person>
    <person id="ped214" depart="397.48" type="ped_pedestrian">
        <walk from="31349141#1" to="592744394"/>
    </person>
    <person id="ped215" depart="399.34" type="ped_pedestrian">
        <walk from="700205176#0" to="625796125#2"/>
    </person>
    <person id="ped216" depart="401.19" type="ped_pedestrian">
        <walk from="27155597#1" to="-195293323#14"/>
    </person>
    <person id="ped217" depart="403.05" type="ped_pedestrian">
        <walk from="25586775#1" to="625794558#0"/>
    </person>
    <person id="ped218" depart="404.91" type="ped_pedestrian">
        <walk from="700205164#0" to="89133447#2"/>
    </person>
    <person id="ped219" depart="406.76" type="ped_pedestrian">
        <walk from="27155661#2" to="625747352#1"/>
    </person>
    <person id="ped220" depart="408.62" type="ped_pedestrian">
        <walk from="28990915#2" to="33569520#0"/>
    </person>
    <person id="ped221" depart="410.48" type="ped_pedestrian">
        <walk from="-703815043#7" to="-703815043#2"/>
    </person>
    <person id="ped222" depart="412.34" type="ped_pedestrian">
        <walk from="27161556#0" to="-27155526#1"/>
    </person>
    <person id="ped223" depart="414.19" type="ped_pedestrian">
        <walk from="208585049#4" to="512876474#3"/>
    </person>
    <person id="ped224" depart="416.05" type="ped_pedestrian">
        <walk from="27155640#1" to="-675523451#1"/>
    </person>
    <person id="ped225" depart="417.91" type="ped_pedestrian">
        <walk from="27184992#0" to="-592744814#1"/>
    </person>
    <person id="ped226" depart="419.77" type="ped_pedestrian">
        <walk from="35816703#4" to="-25586878"/>
    </person>
    <person id="ped227" depart="421.62" type="ped_pedestrian">
        <walk from="27155615#3" to="291429626#3"/>
    </person>