<?xml version="1.0" encoding="UTF-8"?>

<!-- generated on 2021-11-01 13:46:03 by Eclipse SUMO duarouter Version 1.10.0
<configuration xmlns:xsi="http://www.w3.org/2001/XMLSchema-instance" xsi:noNamespaceSchemaLocation="http://sumo.dlr.de/xsd/duarouterConfiguration.xsd">

    <input>
        <net-file value="C:\Users\juane\Sumo\2021-11-01-13-45-29\osm.net.xml"/>
        <route-files value="C:\Users\juane\Sumo\2021-11-01-13-45-29\osm.passenger.trips.xml"/>
    </input>

    <output>
        <output-file value="C:\Users\juane\Sumo\2021-11-01-13-45-29\osm.passenger.trips.xml.tmp"/>
        <write-trips value="true"/>
    </output>

    <time>
        <begin value="0"/>
        <end value="1800"/>
    </time>

    <report>
        <no-warnings value="true"/>
        <ignore-errors value="true"/>
        <no-step-log value="true"/>
    </report>

</configuration>
-->

<routes xmlns:xsi="http://www.w3.org/2001/XMLSchema-instance" xsi:noNamespaceSchemaLocation="http://sumo.dlr.de/xsd/routes_file.xsd">
    <vType id="veh_passenger" vClass="passenger"/>
    <trip id="veh0" type="veh_passenger" depart="0.00" departLane="best" from="512876418#0" to="35557075#4"/>
    <trip id="veh1" type="veh_passenger" depart="1.96" departLane="best" from="627447205#0" to="-27197916#8"/>
    <trip id="veh2" type="veh_passenger" depart="3.92" departLane="best" from="27155608#4" to="-27155509#1"/>
    <trip id="veh3" type="veh_passenger" depart="5.87" departLane="best" from="-89344570#0" to="27185402#2"/>
    <trip id="veh4" type="veh_passenger" depart="7.83" departLane="best" from="-207175836#13" to="188590915#0"/>
    <trip id="veh5" type="veh_passenger" depart="9.79" departLane="best" from="29239861" to="27197951#1"/>
    <trip id="veh6" type="veh_passenger" depart="11.75" departLane="best" departSpeed="max" from="-89344570#1" to="28990915#3"/>
    <trip id="veh7" type="veh_passenger" depart="13.70" departLane="best" from="592750800#4" to="-195293323#13"/>
    <trip id="veh8" type="veh_passenger" depart="15.66" departLane="best" departSpeed="max" from="592750800#0" to="36963449#1"/>
    <trip id="veh9" type="veh_passenger" depart="17.62" departLane="best" from="207175851#3" to="114797599#1"/>
    <trip id="veh10" type="veh_passenger" depart="19.58" departLane="best" from="89138523#2" to="27152962"/>
    <trip id="veh11" type="veh_passenger" depart="21.53" departLane="best" departSpeed="max" from="-27162962" to="-27197945"/>
    <trip id="veh12" type="veh_passenger" depart="23.49" departLane="best" from="625794562#1" to="29077579#2"/>
    <trip id="veh13" type="veh_passenger" depart="25.45" departLane="best" departSpeed="max" from="592750800#0" to="533570325"/>
    <trip id="veh14" type="veh_passenger" depart="27.41" departLane="best" from="27185038#0" to="89344570#1"/>
    <trip id="veh15" type="veh_passenger" depart="29.37" departLane="best" from="625747350#5" to="29333757#2"/>
    <trip id="veh16" type="veh_passenger" depart="31.32" departLane="best" from="625796124#2" to="27210271#0"/>
    <trip id="veh17" type="veh_passenger" depart="33.28" departLane="best" from="35557074#2" to="-27155618#1"/>
    <trip id="veh18" type="veh_passenger" depart="35.24" departLane="best" from="114797599#0" to="207727526#2"/>
    <trip id="veh19" type="veh_passenger" depart="37.20" departLane="best" from="-27155683#0" to="204156082"/>
    <trip id="veh20" type="veh_passenger" depart="39.15" departLane="best" departSpeed="max" from="-27185017#1" to="207175851#10"/>
    <trip id="veh21" type="veh_passenger" depart="41.11" departLane="best" from="29027150#0" to="27155608#6"/>
    <trip id="veh22" type="veh_passenger" depart="43.07" departLane="best" from="23290865#2" to="188590921#0"/>
    <trip id="veh23" type="veh_passenger" depart="45.03" departLane="best" from="159008541" to="89138488#2"/>
    <trip id="veh24" type="veh_passenger" depart="46.99" departLane="best" from="291429626#2" to="29077664#1"/>
    <trip id="veh25" type="veh_passenger" depart="48.94" departLane="best" from="-35817302#2" to="512876474#5"/>
    <trip id="veh26" type="veh_passenger" depart="50.90" departLane="best" from="-35816703#3" to="27155619#1"/>
    <trip id="veh27" type="veh_passenger" depart="52.86" departLane="best" from="89344658#1" to="31110568"/>
    <trip id="veh28" type="veh_passenger" depart="54.82" departLane="best" from="27185402#4" to="35816703#1"/>
    <trip id="veh29" type="veh_passenger" depart="56.77" departLane="best" from="625794557#2" to="592750762#3"/>
    <trip id="veh30" type="veh_passenger" depart="58.73" departLane="best" from="114797609" to="-27155534"/>
    <trip id="veh31" type="veh_passenger" depart="60.69" departLane="best" from="204254787#1" to="204638707#0"/>
    <trip id="veh32" type="veh_passenger" depart="62.65" departLane="best" from="-702674937#0" to="89138493#2"/>
    <trip id="veh33" type="veh_passenger" depart="64.60" departLane="best" from="29333757#10" to="27155649"/>
    <trip id="veh34" type="veh_passenger" depart="66.56" departLane="best" from="698930825" to="27184965#1"/>
    <trip id="veh35" type="veh_passenger" depart="68.52" departLane="best" from="158605508#1" to="204213937#1"/>
    <trip id="veh36" type="veh_passenger" depart="70.48" departLane="best" from="27197914#0" to="204638691#2"/>
    <trip id="veh37" type="veh_passenger" depart="72.44" departLane="best" from="27197948#0" to="682923255#1"/>
    <trip id="veh38" type="veh_passenger" depart="74.39" departLane="best" from="27155516#2" to="188904971"/>
    <trip id="veh39" type="veh_passenger" depart="76.35" departLane="best" from="964567098" to="27185402#7"/>
    <trip id="veh40" type="veh_passenger" depart="78.31" departLane="best" from="-27185382#0" to="29333786#2"/>
    <trip id="veh41" type="veh_passenger" depart="80.27" departLane="best" from="592750763#1" to="27161530#1"/>
    <trip id="veh42" type="veh_passenger" depart="82.22" departLane="best" from="89344556#0" to="625796130#1"/>
    <trip id="veh43" type="veh_passenger" depart="84.18" departLane="best" departSpeed="max" from="-204156084#1" to="512876418#0"/>
    <trip id="veh44" type="veh_passenger" depart="86.14" departLane="best" from="31349261#2" to="27197940#4"/>
    <trip id="veh45" type="veh_passenger" depart="88.10" departLane="best" from="159008541" to="31110568"/>
    <trip id="veh46" type="veh_passenger" depart="90.05" departLane="best" from="27155652#0" to="89323202#3"/>
    <trip id="veh47" type="veh_passenger" depart="92.01" departLane="best" from="625981289#1" to="204638701#1"/>
    <trip id="veh48" type="veh_passenger" depart="93.97" departLane="best" departSpeed="max" from="27184960#0" to="124414563#2"/>
    <trip id="veh49" type="veh_passenger" depart="95.93" departLane="best" from="683556892#2" to="625985017#2"/>
    <trip id="veh50" type="veh_passenger" depart="97.89" departLane="best" from="195293323#9" to="31110568"/>
    <trip id="veh51" type="veh_passenger" depart="99.84" departLane="best" from="27201541#2" to="100282308#0"/>
    <trip id="veh52" type="veh_passenger" depart="101.80" departLane="best" from="592744589#1" to="27197946#0"/>
    <trip id="veh53" type="veh_passenger" depart="103.76" departLane="best" from="592744819#10" to="27197939#0"/>
    <trip id="veh54" type="veh_passenger" depart="105.72" departLane="best" from="-114797588#1" to="25585669#2"/>
    <trip id="veh55" type="veh_passenger" depart="107.67" departLane="best" departSpeed="max" from="625981307#0" to="625794557#2"/>
    <trip id="veh56" type="veh_passenger" depart="109.63" departLane="best" from="204156094#0" to="-27155678"/>
    <trip id="veh57" type="veh_passenger" depart="111.59" departLane="best" departSpeed="max" from="625981307#0" to="89138516#1"/>
    <trip id="veh58" type="veh_passenger" depart="113.55" departLane="best" departSpeed="max" from="-27162957" to="27185038#6"/>
    <trip id="veh59" type="veh_passenger" depart="115.51" departLane="best" departSpeed="max" from="-27155634#1" to="592744818#2"/>
    <trip id="veh60" type="veh_passenger" depart="117.46" departLane="best" from="27155684#1" to="27197953#1"/>
    <trip id="veh61" type="veh_passenger" depart="119.42" departLane="best" from="158605508#1" to="627447201#1"/>
    <trip id="veh62" type="veh_passenger" depart="121.38" departLane="best" from="27155608#6" to="188590924#10"/>
    <trip id="veh63" type="veh_passenger" depart="123.34" departLane="best" from="27185039#1" to="533570325"/>
    <trip id="veh65" type="veh_passenger" depart="127.25" departLane="best" from="27155627#0" to="27197915#6"/>
    <trip id="veh66" type="veh_passenger" depart="129.21" departLane="best" from="-27197916#10" to="195293323#0"/>
    <trip id="veh67" type="veh_passenger" depart="131.17" departLane="best" from="207175843#1" to="28990915#1"/>
    <trip id="veh68" type="veh_passenger" depart="133.12" departLane="best" departSpeed="max" from="124414507" to="188907682#1"/>
    <trip id="veh69" type="veh_passenger" depart="135.08" departLane="best" departSpeed="max" from="-27155634#1" to="29348269#1"/>
    <trip id="veh70" type="veh_passenger" depart="137.04" departLane="best" from="114797609" to="702100707#1"/>
    <trip id="veh71" type="veh_passenger" depart="139.00" departLane="best" from="124414538#0" to="33757098#10"/>
    <trip id="veh72" type="veh_passenger" depart="140.96" departLane="best" departSpeed="max" from="-881045792#5" to="-592750768"/>
    <trip id="veh73" type="veh_passenger" depart="142.91" departLane="best" from="89133436" to="27201570#3"/>
    <trip id="veh74" type="veh_passenger" depart="144.87" departLane="best" from="27155680#0" to="592750778#0"/>
    <trip id="veh75" type="veh_passenger" depart="146.83" departLane="best" departSpeed="max" from="592750800#0" to="158605508#0"/>
    <trip id="veh76" type="veh_passenger" depart="148.79" departLane="best" from="-27184994" to="27161561#1"/>
    <trip id="veh77" type="veh_passenger" depart="150.74" departLane="best" from="27155608#7" to="27185002#3"/>
    <trip id="veh78" type="veh_passenger" depart="152.70" departLane="best" from="442766151" to="35031199#1"/>
    <trip id="veh79" type="veh_passenger" depart="154.66" departLane="best" from="89344643#1" to="-27197950#0"/>
    <trip id="veh80" type="veh_passenger" depart="156.62" departLane="best" departSpeed="max" from="27155534" to="27155508#1"/>
    <trip id="veh81" type="veh_passenger" depart="158.57" departLane="best" from="625796124#2" to="204254787#1"/>
    <trip id="veh82" type="veh_passenger" depart="160.53" departLane="best" from="-592744810#6" to="27162962"/>
    <trip id="veh83" type="veh_passenger" depart="162.49" departLane="best" from="27155608#4" to="207175851#2"/>
    <trip id="veh84" type="veh_passenger" depart="164.45" departLane="best" departSpeed="max" from="124416224#0" to="89133429#0"/>
    <trip id="veh85" type="veh_passenger" depart="166.41" departLane="best" from="27155639#0" to="625796130#2"/>
    <trip id="veh86" type="veh_passenger" depart="168.36" departLane="best" from="27185051#1" to="-27155629#0"/>
    <trip id="veh87" type="veh_passenger" depart="170.32" departLane="best" from="99404704#3" to="625794562#0"/>
    <trip id="veh89" type="veh_passenger" depart="174.24" departLane="best" from="625794564#0" to="124414526"/>
    <trip id="veh90" type="veh_passenger" depart="176.19" departLane="best" from="27161561#1" to="188590924#4"/>
    <trip id="veh91" type="veh_passenger" depart="178.15" departLane="best" from="27155525#2" to="-27155684#0"/>
    <trip id="veh92" type="veh_passenger" depart="180.11" departLane="best" from="25585669#1" to="89344643#2"/>
    <trip id="veh93" type="veh_passenger" depart="182.07" departLane="best" from="158605508#1" to="592750777#1"/>
    <trip id="veh94" type="veh_passenger" depart="184.03" departLane="best" from="27155653#0" to="27161530#3"/>
    <trip id="veh95" type="veh_passenger" depart="185.98" departLane="best" from="89138523#2" to="905034713"/>
    <trip id="veh96" type="veh_passenger" depart="187.94" departLane="best" from="27185402#2" to="46692036#0"/>
    <trip id="veh97" type="veh_passenger" depart="189.90" departLane="best" from="89344548" to="27210271#2"/>
    <trip id="veh98" type="veh_passenger" depart="191.86" departLane="best" from="27185039#7" to="592744589#0"/>
    <trip id="veh99" type="veh_passenger" depart="193.81" departLane="best" from="-27155615#2" to="28990817"/>
    <trip id="veh100" type="veh_passenger" depart="195.77" departLane="best" from="27184960#1" to="625796125#3"/>
    <trip id="veh101" type="veh_passenger" depart="197.73" departLane="best" from="-33515296#0" to="89323208#1"/>
    <trip id="veh102" type="veh_passenger" depart="199.69" departLane="best" departSpeed="max" from="27197983#0" to="35557074#2"/>
    <trip id="veh103" type="veh_passenger" depart="201.64" departLane="best" from="124414523#4" to="-35817302#0"/>
    <trip id="veh104" type="veh_passenger" depart="203.60" departLane="best" from="627447204#3" to="204213937#0"/>
    <trip id="veh105" type="veh_passenger" depart="205.56" departLane="best" departSpeed="max" from="27197983#0" to="29333757#4"/>
    <trip id="veh106" type="veh_passenger" depart="207.52" departLane="best" from="27155608#0" to="28986685#2"/>
    <trip id="veh107" type="veh_passenger" depart="209.48" departLane="best" from="27185005" to="89138488#0"/>
    <trip id="veh108" type="veh_passenger" depart="211.43" departLane="best" from="-625796127#8" to="442766151"/>
    <trip id="veh109" type="veh_passenger" depart="213.39" departLane="best" from="124414546#0" to="27155650#0"/>
    <trip id="veh110" type="veh_passenger" depart="215.35" departLane="best" from="31304261" to="208585048"/>
    <trip id="veh111" type="veh_passenger" depart="217.31" departLane="best" from="204254788#4" to="592744810#0"/>
    <trip id="veh112" type="veh_passenger" depart="219.26" departLane="best" from="-27155639#0" to="27184964#2"/>
    <trip id="veh113" type="veh_passenger" depart="221.22" departLane="best" from="99404704#0" to="905034714"/>
    <trip id="veh114" type="veh_passenger" depart="223.18" departLane="best" from="158605508#1" to="89134972#1"/>
    <trip id="veh115" type="veh_passenger" depart="225.14" departLane="best" departSpeed="max" from="625981307#0" to="627447204#3"/>
    <trip id="veh116" type="veh_passenger" depart="227.09" departLane="best" from="221652895#2" to="124414501"/>
    <trip id="veh117" type="veh_passenger" depart="229.05" departLane="best" from="625791613" to="37524424"/>
    <trip id="veh118" type="veh_passenger" depart="231.01" departLane="best" from="27201542#2" to="89344651#0"/>
    <trip id="veh119" type="veh_passenger" depart="232.97" departLane="best" from="29240550#5" to="-195293323#3"/>
    <trip id="veh120" type="veh_passenger" depart="234.93" departLane="best" from="625714306#0" to="208585047#2"/>
    <trip id="veh121" type="veh_passenger" depart="236.88" departLane="best" from="29333786#3" to="89138488#3"/>
    <trip id="veh122" type="veh_passenger" depart="238.84" departLane="best" departSpeed="max" from="-27197940#6" to="-35031199#1"/>
    <trip id="veh123" type="veh_passenger" depart="240.80" departLane="best" from="-27185044#4" to="27197983#7"/>
    <trip id="veh124" type="veh_passenger" depart="242.76" departLane="best" from="178361781" to="29077579#4"/>
    <trip id="veh125" type="veh_passenger" depart="244.71" departLane="best" from="35817302#1" to="188590917#1"/>
    <trip id="veh126" type="veh_passenger" depart="246.67" departLane="best" from="28990958" to="204638701#2"/>
    <trip id="veh127" type="veh_passenger" depart="248.63" departLane="best" from="27161563#2" to="702100707#1"/>
    <trip id="veh128" type="veh_passenger" depart="250.59" departLane="best" from="27155608#7" to="207175843#2"/>
    <trip id="veh130" type="veh_passenger" depart="254.50" departLane="best" from="512876472" to="27197983#2"/>
    <trip id="veh131" type="veh_passenger" depart="256.46" departLane="best" from="27155610#3" to="-195293323#9"/>
    <trip id="veh132" type="veh_passenger" depart="258.42" departLane="best" from="-27155641#0" to="627447207#2"/>
    <trip id="veh133" type="veh_passenger" depart="260.38" departLane="best" from="675523451#6" to="27197951#1"/>
    <trip id="veh134" type="veh_passenger" depart="262.33" departLane="best" from="-27201540#2" to="-592739057#1"/>
    <trip id="veh135" type="veh_passenger" depart="264.29" departLane="best" from="204156096#0" to="682923256#2"/>
    <trip id="veh136" type="veh_passenger" depart="266.25" departLane="best" from="592750780#0" to="625796130#1"/>
    <trip id="veh137" type="veh_passenger" depart="268.21" departLane="best" from="668999817#1" to="188590921#1"/>
    <trip id="veh138" type="veh_passenger" depart="270.16" departLane="best" from="592744819#13" to="627447208"/>
    <trip id="veh139" type="veh_passenger" depart="272.12" departLane="best" from="27155536#3" to="29333757#7"/>
    <trip id="veh140" type="veh_passenger" depart="274.08" departLane="best" from="-29077605#1" to="89133449#2"/>
    <trip id="veh141" type="veh_passenger" depart="276.04" departLane="best" from="625796125#4" to="89344586#2"/>
    <trip id="veh142" type="veh_passenger" depart="278.00" departLane="best" from="592750800#7" to="627447205#1"/>
    <trip id="veh143" type="veh_passenger" depart="279.95" departLane="best" from="-207175836#1" to="592738115#0"/>
    <trip id="veh144" type="veh_passenger" depart="281.91" departLane="best" from="204638709" to="89134972#0"/>
    <trip id="veh146" type="veh_passenger" depart="285.83" departLane="best" from="592750800#7" to="204638704#0"/>
    <trip id="veh147" type="veh_passenger" depart="287.78" departLane="best" from="592748994" to="-27201541#4"/>
    <trip id="veh148" type="veh_passenger" depart="289.74" departLane="best" from="-89344651#0" to="625747350#2"/>
    <trip id="veh149" type="veh_passenger" depart="291.70" departLane="best" from="27155657" to="209204306"/>
    <trip id="veh150" type="veh_passenger" depart="293.66" departLane="best" from="592750778#1" to="195293323#4"/>
    <trip id="veh151" type="veh_passenger" depart="295.62" departLane="best" departSpeed="max" from="-204638701#3" to="159008541"/>
    <trip id="veh153" type="veh_passenger" depart="299.53" departLane="best" from="89323208#4" to="207175851#3"/>
    <trip id="veh154" type="veh_passenger" depart="301.49" departLane="best" from="29077579#3" to="27155653#1"/>
    <trip id="veh155" type="veh_passenger" depart="303.45" departLane="best" from="89344603#0" to="27197940#4"/>
    <trip id="veh156" type="veh_passenger" depart="305.40" departLane="best" from="89133447#3" to="-35031199#1"/>
    <trip id="veh157" type="veh_passenger" depart="307.36" departLane="best" from="89344551#1" to="124414563#2"/>
    <trip id="veh158" type="veh_passenger" depart="309.32" departLane="best" from="89323207#0" to="204638701#3"/>
    <trip id="veh159" type="veh_passenger" depart="311.28" departLane="best" from="-27185044#6" to="27161565"/>
    <trip id="veh160" type="veh_passenger" depart="313.23" departLane="best" from="441639990" to="221652894#3"/>
    <trip id="veh161" type="veh_passenger" depart="315.19" departLane="best" from="27201539#1" to="27197906#3"/>
    <trip id="veh162" type="veh_passenger" depart="317.15" departLane="best" from="25586775#5" to="27201584#0"/>
    <trip id="veh163" type="veh_passenger" depart="319.11" departLane="best" from="126518384#2" to="39597182"/>
    <trip id="veh164" type="veh_passenger" depart="321.07" departLane="best" from="-158649608#0" to="89133441#0"/>
    <trip id="veh165" type="veh_passenger" depart="323.02" departLane="best" from="27185038#4" to="50825348#0"/>
    <trip id="veh166" type="veh_passenger" depart="324.98" departLane="best" from="512876473" to="33757098#4"/>
    <trip id="veh167" type="veh_passenger" depart="326.94" departLane="best" from="221652894#1" to="-27185020"/>
    <trip id="veh168" type="veh_passenger" depart="328.90" departLane="best" from="29333786#5" to="25586775#5"/>
    <trip id="veh169" type="veh_passenger" depart="330.85" departLane="best" from="204213939" to="625796123#2"/>
    <trip id="veh170" type="veh_passenger" depart="332.81" departLane="best" from="35834744#3" to="208585049#0"/>
    <trip id="veh172" type="veh_passenger" depart="336.73" departLane="best" departSpeed="max" from="27155534" to="208585045#0"/>
    <trip id="veh173" type="veh_passenger" depart="338.68" departLane="best" departSpeed="max" from="-27197921#4" to="27155684#0"/>
    <trip id="veh174" type="veh_passenger" depart="340.64" departLane="best" from="89133449#2" to="35726568#1"/>
    <trip id="veh175" type="veh_passenger" depart="342.60" departLane="best" departSpeed="max" from="204156081#0" to="27197952#1"/>
    <trip id="veh176" type="veh_passenger" depart="344.56" departLane="best" from="-114797588#0" to="207727526#1"/>
    <trip id="veh177" type="veh_passenger" depart="346.52" departLane="best" from="27155612#2" to="27210271#2"/>
    <trip id="veh178" type="veh_passenger" depart="348.47" departLane="best" from="29333757#0" to="27184997#3"/>
    <trip id="veh179" type="veh_passenger" depart="350.43" departLane="best" from="27155680#1" to="683556892#2"/>
    <trip id="veh181" type="veh_passenger" depart="354.35" departLane="best" departSpeed="max" from="-27162954#3" to="27197915#1"/>
    <trip id="veh182" type="veh_passenger" depart="356.30" departLane="best" departSpeed="max" from="28990937#0" to="27152907#1"/>
    <trip id="veh183" type="veh_passenger" depart="358.26" departLane="best" from="625714306#4" to="592744809#1"/>
    <trip id="veh184" type="veh_passenger" depart="360.22" departLane="best" from="31349141#3" to="195293323#0"/>
    <trip id="veh185" type="veh_passenger" depart="362.18" departLane="best" from="-625747350#3" to="-207175851#3"/>
    <trip id="veh186" type="veh_passenger" depart="364.14" departLane="best" from="625794564#2" to="-27185044#0"/>
    <trip id="veh187" type="veh_passenger" depart="366.09" departLane="best" from="27155555#2" to="29333786#6"/>
    <trip id="veh188" type="veh_passenger" depart="368.05" departLane="best" departSpeed="max" from="-592750765" to="35834744#0"/>
    <trip id="veh189" type="veh_passenger" depart="370.01" departLane="best" from="29333757#2" to="-195293323#0"/>
    <trip id="veh190" type="veh_passenger" depart="371.97" departLane="best" from="-27185044#3" to="27161539#0"/>
    <trip id="veh191" type="veh_passenger" depart="373.92" departLane="best" departSpeed="max" from="-37524424" to="89323207#0"/>
    <trip id="veh192" type="veh_passenger" depart="375.88" departLane="best" from="27185002#0" to="-27155629#0"/>
    <trip id="veh193" type="veh_passenger" depart="377.84" departLane="best" departSpeed="max" from="124416224#0" to="625796123#3"/>
    <trip id="veh194" type="veh_passenger" depart="379.80" departLane="best" from="27155653#3" to="592750806#0"/>
    <trip id="veh196" type="veh_passenger" depart="383.71" departLane="best" from="627447204#4" to="29239861"/>
    <trip id="veh197" type="veh_passenger" depart="385.67" departLane="best" from="35834744#2" to="27185402#1"/>
    <trip id="veh198" type="veh_passenger" depart="387.63" departLane="best" from="625747352#0" to="27197952#1"/>
    <trip id="veh199" type="veh_passenger" depart="389.59" departLane="best" from="628992544#1" to="592739057#1"/>
    <trip id="veh200" type="veh_passenger" depart="391.54" departLane="best" from="27155683#0" to="204539432"/>
    <trip id="veh201" type="veh_passenger" depart="393.50" departLane="best" from="124414563#2" to="300212416"/>
    <trip id="veh202" type="veh_passenger" depart="395.46" departLane="best" from="592744810#0" to="27197916#4"/>
    <trip id="veh203" type="veh_passenger" depart="397.42" departLane="best" from="28990919#3" to="207175843#1"/>
    <trip id="veh204" type="veh_passenger" depart="399.37" departLane="best" departSpeed="max" from="-27155655" to="207727515"/>
    <trip id="veh206" type="veh_passenger" depart="403.29" departLane="best" from="27185039#3" to="-625796127#2"/>
    <trip id="veh207" type="veh_passenger" depart="405.25" departLane="best" departSpeed="max" from="124414507" to="35817372"/>
    <trip id="veh208" type="veh_passenger" depart="407.20" departLane="best" from="35726568#0" to="-27162961#2"/>
    <trip id="veh209" type="veh_passenger" depart="409.16" departLane="best" departSpeed="max" from="27155545#0" to="27197948#5"/>
    <trip id="veh210" type="veh_passenger" depart="411.12" departLane="best" from="27155608#10" to="702100707#0"/>
    <trip id="veh211" type="veh_passenger" depart="413.08" departLane="best" from="27197946#1" to="35817372"/>
    <trip id="veh212" type="veh_passenger" depart="415.04" departLane="best" from="625796122#7" to="592744819#3"/>
    <trip id="veh213" type="veh_passenger" depart="416.99" departLane="best" from="25585669#3" to="-195293323#11"/>
    <trip id="veh214" type="veh_passenger" depart="418.95" departLane="best" from="208585041" to="592744813#1"/>
    <trip id="veh215" type="veh_passenger" depart="420.91" departLane="best" from="625796122#1" to="89323202#2"/>
    <trip id="veh216" type="veh_passenger" depart="422.87" departLane="best" from="27155608#0" to="592744589#0"/>
    <trip id="veh217" type="veh_passenger" depart="424.82" departLane="best" departSpeed="max" from="-89344570#1" to="188904971"/>
    <trip id="veh218" type="veh_passenger" depart="426.78" departLane="best" from="27155619#0" to="-25586878"/>
    <trip id="veh219" type="veh_passenger" depart="428.74" departLane="best" departSpeed="max" from="27155534" to="124414526"/>
    <trip id="veh220" type="veh_passenger" depart="430.70" departLane="best" from="27155667#0" to="-592739057#1"/>
    <trip id="veh221" type="veh_passenger" depart="432.66" departLane="best" from="28990896#1" to="-207175851#8"/>
    <trip id="veh223" type="veh_passenger" depart="436.57" departLane="best" from="-207175836#2" to="31349141#1"/>
    <trip id="veh224" type="veh_passenger" depart="438.53" departLane="best" departSpeed="max" from="-27197940#6" to="27184986#3"/>
    <trip id="veh225" type="veh_passenger" depart="440.49" departLane="best" from="-27155590#0" to="27155619#0"/>
    <trip id="veh226" type="veh_passenger" depart="442.44" departLane="best" from="592744472#1" to="27155619#0"/>
    <trip id="veh228" type="veh_passenger" depart="446.36" departLane="best" departSpeed="max" from="124416224#0" to="-27197907#1"/>
    <trip id="veh229" type="veh_passenger" depart="448.32" departLane="best" departSpeed="max" from="-204539429" to="27197946#0"/>
    <trip id="veh230" type="veh_passenger" depart="450.27" departLane="best" from="99404704#3" to="27155536#1"/>
    <trip id="veh231" type="veh_passenger" depart="452.23" departLane="best" from="29239861" to="592750772#1"/>
    <trip id="veh232" type="veh_passenger" depart="454.19" departLane="best" from="89138502#6" to="188590915#0"/>
    <trip id="veh233" type="veh_passenger" depart="456.15" departLane="best" from="-204638701#0" to="100282267#1"/>
    <trip id="veh234" type="veh_passenger" depart="458.11" departLane="best" from="-27197921#1" to="33757098#2"/>
    <trip id="veh235" type="veh_passenger" depart="460.06" departLane="best" from="27197915#2" to="188590924#9"/>
    <trip id="veh236" type="veh_passenger" depart="462.02" departLane="best" from="33757098#3" to="592744819#6"/>
    <trip id="veh237" type="veh_passenger" depart="463.98" departLane="best" departSpeed="max" from="-35817157" to="29077579#9"/>
    <trip id="veh238" type="veh_passenger" depart="465.94" departLane="best" from="592738081" to="-35031199#0"/>
    <trip id="veh240" type="veh_passenger" depart="469.85" departLane="best" from="-27185044#6" to="-207175851#5"/>
    <trip id="veh241" type="veh_passenger" depart="471.81" departLane="best" from="204213936#0" to="35726568#1"/>
    <trip id="veh242" type="veh_passenger" depart="473.77" departLane="best" from="35816703#3" to="-27185044#7"/>
    <trip id="veh243" type="veh_passenger" depart="475.72" departLane="best" from="31520107#1" to="29333786#1"/>
    <trip id="veh244" type="veh_passenger" depart="477.68" departLane="best" from="-27185019" to="592749796#1"/>
    <trip id="veh245" type="veh_passenger" depart="479.64" departLane="best" from="625794564#2" to="29027150#4"/>
    <trip id="veh246" type="veh_passenger" depart="481.60" departLane="best" from="-27197916#10" to="89344643#0"/>
    <trip id="veh247" type="veh_passenger" depart="483.56" departLane="best" from="592744819#5" to="27155526#1"/>
    <trip id="veh248" type="veh_passenger" depart="485.51" departLane="best" departSpeed="max" from="27184963#0" to="27155513#0"/>
    <trip id="veh249" type="veh_passenger" depart="487.47" departLane="best" from="625794564#2" to="625791613"/>
    <trip id="veh250" type="veh_passenger" depart="489.43" departLane="best" from="-27185044#0" to="89323208#1"/>
    <trip id="veh251" type="veh_passenger" depart="491.39" departLane="best" from="29027150#0" to="625794553"/>
    <trip id="veh252" type="veh_passenger" depart="493.34" departLane="best" from="35726568#2" to="27161568#2"/>
    <trip id="veh255" type="veh_passenger" depart="499.22" departLane="best" from="27155619#0" to="592738081"/>
    <trip id="veh256" type="veh_passenger" depart="501.18" departLane="best" from="177364949#1" to="625796125#0"/>
    <trip id="veh257" type="veh_passenger" depart="503.13" departLane="best" from="625747352#0" to="-27197916#8"/>
    <trip id="veh258" type="veh_passenger" depart="505.09" departLane="best" from="625981307#1" to="204213935#1"/>
    <trip id="veh259" type="veh_passenger" depart="507.05" departLane="best" from="27155661#2" to="291429626#2"/>
    <trip id="veh260" type="veh_passenger" depart="509.01" departLane="best" from="625796120#0" to="126518384#4"/>