<?xml version="1.0" encoding="UTF-8"?>

<!-- generated on 2021-11-01 13:46:37 by Eclipse SUMO duarouter Version 1.10.0
<configuration xmlns:xsi="http://www.w3.org/2001/XMLSchema-instance" xsi:noNamespaceSchemaLocation="http://sumo.dlr.de/xsd/duarouterConfiguration.xsd">

    <input>
        <net-file value="C:\Users\juane\Sumo\2021-11-01-13-45-29\osm.net.xml"/>
        <route-files value="C:\Users\juane\Sumo\2021-11-01-13-45-29\osm.ship.trips.xml"/>
    </input>

    <output>
        <output-file value="C:\Users\juane\Sumo\2021-11-01-13-45-29\osm.ship.trips.xml.tmp"/>
        <write-trips value="true"/>
    </output>

    <time>
        <begin value="0"/>
        <end value="1800"/>
    </time>

    <report>
        <no-warnings value="true"/>
        <ignore-errors value="true"/>
        <no-step-log value="true"/>
    </report>

</configuration>
-->

<routes xmlns:xsi="http://www.w3.org/2001/XMLSchema-instance" xsi:noNamespaceSchemaLocation="http://sumo.dlr.de/xsd/routes_file.xsd">
    <vType id="ship_ship" vClass="ship"/>
    <trip id="ship0" type="ship_ship" depart="0.00" departSpeed="max" from="33910578" to="-33910578"/>
    <trip id="ship1" type="ship_ship" depart="1.17" departSpeed="max" from="-34573787" to="-33910578"/>
    <trip id="ship2" type="ship_ship" depart="2.34" departSpeed="max" from="33910578" to="34573762"/>
    <trip id="ship3" type="ship_ship" depart="3.52" departSpeed="max" from="369717408" to="-33910578"/>
    <trip id="ship4" type="ship_ship" depart="4.69" departSpeed="max" from="-34573787" to="-33910578"/>
    <trip id="ship5" type="ship_ship" depart="5.86" departSpeed="max" from="-34573762" to="34573762"/>
    <trip id="ship6" type="ship_ship" depart="7.03" departSpeed="max" from="-34573762" to="-33910578"/>
    <trip id="ship7" type="ship_ship" depart="8.21" departSpeed="max" from="33910578" to="34573762"/>
    <trip id="ship8" type="ship_ship" depart="9.38" departSpeed="max" from="-34573762" to="34573762"/>
    <trip id="ship9" type="ship_ship" depart="10.55" departSpeed="max" from="369717408" to="-33910578"/>
    <trip id="ship10" type="ship_ship" depart="11.72" departSpeed="max" from="369717408" to="34573762"/>
    <trip id="ship11" type="ship_ship" depart="12.89" departSpeed="max" from="-34573787" to="-33910578"/>
    <trip id="ship12" type="ship_ship" depart="14.07" departSpeed="max" from="369717408" to="-369717408"/>
    <trip id="ship13" type="ship_ship" depart="15.24" departSpeed="max" from="-34573762" to="-33910578"/>
    <trip id="ship14" type="ship_ship" depart="16.41" departSpeed="max" from="369717408" to="34573762"/>
    <trip id="ship15" type="ship_ship" depart="17.58" departSpeed="max" from="369717408" to="34573762"/>
    <trip id="ship16" type="ship_ship" depart="18.75" departSpeed="max" from="33910578" to="34573787"/>
    <trip id="ship17" type="ship_ship" depart="19.93" departSpeed="max" from="-34573787" to="34573762"/>
    <trip id="ship18" type="ship_ship" depart="21.10" departSpeed="max" from="369717408" to="34573762"/>
    <trip id="ship19" type="ship_ship" depart="22.27" departSpeed="max" from="369717408" to="34573762"/>
    <trip id="ship20" type="ship_ship" depart="23.44" departSpeed="max" from="33910578" to="-33910578"/>
    <trip id="ship21" type="ship_ship" depart="24.62" departSpeed="max" from="-34573762" to="-369717408"/>
    <trip id="ship22" type="ship_ship" depart="25.79" departSpeed="max" from="-34573762" to="-33910578"/>
    <trip id="ship23" type="ship_ship" depart="26.96" departSpeed="max" from="-34573762" to="-369717408"/>
    <trip id="ship24" type="ship_ship" depart="28.13" departSpeed="max" from="33910578" to="-369717408"/>
    <trip id="ship25" type="ship_ship" depart="29.30" departSpeed="max" from="-34573787" to="-33910578"/>
    <trip id="ship26" type="ship_ship" depart="30.48" departSpeed="max" from="-34573787" to="34573787"/>
    <trip id="ship27" type="ship_ship" depart="31.65" departSpeed="max" from="33910578" to="34573762"/>
    <trip id="ship28" type="ship_ship" depart="32.82" departSpeed="max" from="-34573762" to="34573762"/>
    <trip id="ship29" type="ship_ship" depart="33.99" departSpeed="max" from="-34573762" to="-369717408"/>
    <trip id="ship30" type="ship_ship" depart="35.16" departSpeed="max" from="369717408" to="34573762"/>
    <trip id="ship31" type="ship_ship" depart="36.34" departSpeed="max" from="33910578" to="34573762"/>
    <trip id="ship32" type="ship_ship" depart="37.51" departSpeed="max" from="369717408" to="34573787"/>
    <trip id="ship33" type="ship_ship" depart="38.68" departSpeed="max" from="-34573762" to="-33910578"/>
    <trip id="ship34" type="ship_ship" depart="39.85" departSpeed="max" from="-34573787" to="-369717408"/>
    <trip id="ship35" type="ship_ship" depart="41.03" departSpeed="max" from="-34573762" to="34573787"/>
    <trip id="ship36" type="ship_ship" depart="42.20" departSpeed="max" from="369717408" to="-369717408"/>
    <trip id="ship37" type="ship_ship" depart="43.37" departSpeed="max" from="33910578" to="-369717408"/>
    <trip id="ship38" type="ship_ship" depart="44.54" departSpeed="max" from="369717408" to="-369717408"/>
    <trip id="ship39" type="ship_ship" depart="45.71" departSpeed="max" from="-34573787" to="-33910578"/>
    <trip id="ship40" type="ship_ship" depart="46.89" departSpeed="max" from="33910578" to="-369717408"/>
    <trip id="ship41" type="ship_ship" depart="48.06" departSpeed="max" from="33910578" to="34573787"/>
    <trip id="ship42" type="ship_ship" depart="49.23" departSpeed="max" from="-34573787" to="-33910578"/>
    <trip id="ship43" type="ship_ship" depart="50.40" departSpeed="max" from="369717408" to="34573762"/>
    <trip id="ship44" type="ship_ship" depart="51.57" departSpeed="max" from="-34573762" to="-33910578"/>
    <trip id="ship45" type="ship_ship" depart="52.75" departSpeed="max" from="-34573762" to="34573762"/>
    <trip id="ship46" type="ship_ship" depart="53.92" departSpeed="max" from="369717408" to="-369717408"/>
    <trip id="ship47" type="ship_ship" depart="55.09" departSpeed="max" from="-34573762" to="-369717408"/>
    <trip id="ship48" type="ship_ship" depart="56.26" departSpeed="max" from="369717408" to="34573762"/>
    <trip id="ship49" type="ship_ship" depart="57.44" departSpeed="max" from="369717408" to="34573787"/>
    <trip id="ship50" type="ship_ship" depart="58.61" departSpeed="max" from="-34573762" to="34573762"/>
    <trip id="ship51" type="ship_ship" depart="59.78" departSpeed="max" from="33910578" to="34573762"/>
    <trip id="ship52" type="ship_ship" depart="60.95" departSpeed="max" from="-34573787" to="34573762"/>
    <trip id="ship53" type="ship_ship" depart="62.12" departSpeed="max" from="-34573762" to="-369717408"/>
    <trip id="ship54" type="ship_ship" depart="63.30" departSpeed="max" from="-34573787" to="34573787"/>
    <trip id="ship55" type="ship_ship" depart="64.47" departSpeed="max" from="369717408" to="-369717408"/>
    <trip id="ship56" type="ship_ship" depart="65.64" departSpeed="max" from="33910578" to="-33910578"/>
    <trip id="ship57" type="ship_ship" depart="66.81" departSpeed="max" from="369717408" to="34573787"/>
    <trip id="ship58" type="ship_ship" depart="67.98" departSpeed="max" from="-34573787" to="34573762"/>
    <trip id="ship59" type="ship_ship" depart="69.16" departSpeed="max" from="33910578" to="-33910578"/>
    <trip id="ship60" type="ship_ship" depart="70.33" departSpeed="max" from="369717408" to="34573762"/>
    <trip id="ship61" type="ship_ship" depart="71.50" departSpeed="max" from="369717408" to="34573762"/>
    <trip id="ship62" type="ship_ship" depart="72.67" departSpeed="max" from="-34573762" to="-369717408"/>
    <trip id="ship63" type="ship_ship" depart="73.85" departSpeed="max" from="-34573762" to="34573787"/>
    <trip id="ship64" type="ship_ship" depart="75.02" departSpeed="max" from="369717408" to="34573787"/>
    <trip id="ship65" type="ship_ship" depart="76.19" departSpeed="max" from="-34573787" to="-33910578"/>
    <trip id="ship66" type="ship_ship" depart="77.36" departSpeed="max" from="369717408" to="34573787"/>
    <trip id="ship67" type="ship_ship" depart="78.53" departSpeed="max" from="-34573762" to="-369717408"/>
    <trip id="ship68" type="ship_ship" depart="79.71" departSpeed="max" from="-34573762" to="34573787"/>
    <trip id="ship69" type="ship_ship" depart="80.88" departSpeed="max" from="369717408" to="-33910578"/>
    <trip id="ship70" type="ship_ship" depart="82.05" departSpeed="max" from="-34573787" to="34573762"/>
    <trip id="ship71" type="ship_ship" depart="83.22" departSpeed="max" from="-34573787" to="34573787"/>
    <trip id="ship72" type="ship_ship" depart="84.40" departSpeed="max" from="-34573787" to="-33910578"/>
    <trip id="ship73" type="ship_ship" depart="85.57" departSpeed="max" from="33910578" to="34573762"/>
    <trip id="ship74" type="ship_ship" depart="86.74" departSpeed="max" from="-34573762" to="-369717408"/>
    <trip id="ship75" type="ship_ship" depart="87.91" departSpeed="max" from="369717408" to="34573762"/>
    <trip id="ship76" type="ship_ship" depart="89.08" departSpeed="max" from="-34573787" to="34573762"/>
    <trip id="ship77" type="ship_ship" depart="90.26" departSpeed="max" from="-34573762" to="-33910578"/>
    <trip id="ship78" type="ship_ship" depart="91.43" departSpeed="max" from="-34573787" to="34573762"/>
    <trip id="ship79" type="ship_ship" depart="92.60" departSpeed="max" from="-34573762" to="-33910578"/>
    <trip id="ship80" type="ship_ship" depart="93.77" departSpeed="max" from="-34573762" to="34573762"/>
    <trip id="ship81" type="ship_ship" depart="94.94" departSpeed="max" from="-34573762" to="34573787"/>
    <trip id="ship82" type="ship_ship" depart="96.12" departSpeed="max" from="369717408" to="-33910578"/>
    <trip id="ship83" type="ship_ship" depart="97.29" departSpeed="max" from="-34573762" to="34573762"/>
    <trip id="ship84" type="ship_ship" depart="98.46" departSpeed="max" from="-34573762" to="-33910578"/>
    <trip id="ship85" type="ship_ship" depart="99.63" departSpeed="max" from="369717408" to="34573762"/>
    <trip id="ship86" type="ship_ship" depart="100.81" departSpeed="max" from="-34573787" to="34573787"/>
    <trip id="ship87" type="ship_ship" depart="101.98" departSpeed="max" from="369717408" to="-33910578"/>
    <trip id="ship88" type="ship_ship" depart="103.15" departSpeed="max" from="-34573762" to="-369717408"/>
    <trip id="ship89" type="ship_ship" depart="104.32" departSpeed="max" from="-34573787" to="-369717408"/>
    <trip id="ship90" type="ship_ship" depart="105.49" departSpeed="max" from="33910578" to="34573762"/>
    <trip id="ship91" type="ship_ship" depart="106.67" departSpeed="max" from="369717408" to="-33910578"/>
    <trip id="ship92" type="ship_ship" depart="107.84" departSpeed="max" from="-34573787" to="-369717408"/>
    <trip id="ship93" type="ship_ship" depart="109.01" departSpeed="max" from="369717408" to="-33910578"/>
    <trip id="ship94" type="ship_ship" depart="110.18" departSpeed="max" from="-34573762" to="-369717408"/>
    <trip id="ship95" type="ship_ship" depart="111.35" departSpeed="max" from="-34573787" to="-369717408"/>
    <trip id="ship96" type="ship_ship" depart="112.53" departSpeed="max" from="-34573762" to="34573787"/>
    <trip id="ship97" type="ship_ship" depart="113.70" departSpeed="max" from="-34573787" to="34573787"/>
    <trip id="ship98" type="ship_ship" depart="114.87" departSpeed="max" from="33910578" to="-33910578"/>
    <trip id="ship99" type="ship_ship" depart="116.04" departSpeed="max" from="369717408" to="34573787"/>
    <trip id="ship100" type="ship_ship" depart="117.22" departSpeed="max" from="369717408" to="34573787"/>
    <trip id="ship101" type="ship_ship" depart="118.39" departSpeed="max" from="369717408" to="-33910578"/>
    <trip id="ship102" type="ship_ship" depart="119.56" departSpeed="max" from="-34573787" to="-33910578"/>
    <trip id="ship103" type="ship_ship" depart="120.73" departSpeed="max" from="-34573787" to="-33910578"/>
    <trip id="ship104" type="ship_ship" depart="121.90" departSpeed="max" from="-34573787" to="34573787"/>
    <trip id="ship105" type="ship_ship" depart="123.08" departSpeed="max" from="-34573787" to="34573787"/>
    <trip id="ship106" type="ship_ship" depart="124.25" departSpeed="max" from="-34573787" to="-369717408"/>
    <trip id="ship107" type="ship_ship" depart="125.42" departSpeed="max" from="369717408" to="34573787"/>
    <trip id="ship108" type="ship_ship" depart="126.59" departSpeed="max" from="33910578" to="34573762"/>
    <trip id="ship109" type="ship_ship" depart="127.76" departSpeed="max" from="-34573762" to="-369717408"/>
    <trip id="ship110" type="ship_ship" depart="128.94" departSpeed="max" from="369717408" to="34573762"/>
    <trip id="ship111" type="ship_ship" depart="130.11" departSpeed="max" from="33910578" to="34573762"/>
    <trip id="ship112" type="ship_ship" depart="131.28" departSpeed="max" from="-34573762" to="34573762"/>
    <trip id="ship113" type="ship_ship" depart="132.45" departSpeed="max" from="33910578" to="34573787"/>
    <trip id="ship114" type="ship_ship" depart="133.63" departSpeed="max" from="-34573762" to="34573787"/>
    <trip id="ship115" type="ship_ship" depart="134.80" departSpeed="max" from="-34573762" to="-33910578"/>
    <trip id="ship116" type="ship_ship" depart="135.97" departSpeed="max" from="33910578" to="34573762"/>
    <trip id="ship117" type="ship_ship" depart="137.14" departSpeed="max" from="-34573762" to="-33910578"/>
    <trip id="ship118" type="ship_ship" depart="138.31" departSpeed="max" from="369717408" to="-33910578"/>
    <trip id="ship119" type="ship_ship" depart="139.49" departSpeed="max" from="33910578" to="34573762"/>
    <trip id="ship120" type="ship_ship" depart="140.66" departSpeed="max" from="-34573787" to="34573762"/>
    <trip id="ship121" type="ship_ship" depart="141.83" departSpeed="max" from="33910578" to="34573787"/>
    <trip id="ship122" type="ship_ship" depart="143.00" departSpeed="max" from="-34573762" to="34573762"/>
    <trip id="ship123" type="ship_ship" depart="144.17" departSpeed="max" from="-34573762" to="-369717408"/>
    <trip id="ship124" type="ship_ship" depart="145.35" departSpeed="max" from="33910578" to="-369717408"/>
    <trip id="ship125" type="ship_ship" depart="146.52" departSpeed="max" from="-34573787" to="34573787"/>
    <trip id="ship126" type="ship_ship" depart="147.69" departSpeed="max" from="-34573762" to="-369717408"/>
    <trip id="ship127" type="ship_ship" depart="148.86" departSpeed="max" from="369717408" to="34573787"/>
    <trip id="ship128" type="ship_ship" depart="150.04" departSpeed="max" from="-34573762" to="-33910578"/>
    <trip id="ship129" type="ship_ship" depart="151.21" departSpeed="max" from="-34573787" to="34573787"/>
    <trip id="ship130" type="ship_ship" depart="152.38" departSpeed="max" from="369717408" to="34573787"/>
    <trip id="ship131" type="ship_ship" depart="153.55" departSpeed="max" from="-34573787" to="-33910578"/>
    <trip id="ship132" type="ship_ship" depart="154.72" departSpeed="max" from="369717408" to="34573762"/>
    <trip id="ship133" type="ship_ship" depart="155.90" departSpeed="max" from="33910578" to="34573787"/>
    <trip id="ship134" type="ship_ship" depart="157.07" departSpeed="max" from="33910578" to="-33910578"/>
    <trip id="ship135" type="ship_ship" depart="158.24" departSpeed="max" from="369717408" to="-369717408"/>
    <trip id="ship136" type="ship_ship" depart="159.41" departSpeed="max" from="33910578" to="34573787"/>
    <trip id="ship137" type="ship_ship" depart="160.59" departSpeed="max" from="-34573762" to="-33910578"/>
    <trip id="ship138" type="ship_ship" depart="161.76" departSpeed="max" from="-34573762" to="34573762"/>
    <trip id="ship139" type="ship_ship" depart="162.93" departSpeed="max" from="-34573787" to="34573762"/>
    <trip id="ship140" type="ship_ship" depart="164.10" departSpeed="max" from="33910578" to="-33910578"/>
    <trip id="ship141" type="ship_ship" depart="165.27" departSpeed="max" from="33910578" to="-369717408"/>
    <trip id="ship142" type="ship_ship" depart="166.45" departSpeed="max" from="-34573787" to="34573787"/>
    <trip id="ship143" type="ship_ship" depart="167.62" departSpeed="max" from="369717408" to="-33910578"/>
    <trip id="ship144" type="ship_ship" depart="168.79" departSpeed="max" from="-34573787" to="-369717408"/>
    <trip id="ship145" type="ship_ship" depart="169.96" departSpeed="max" from="-34573762" to="34573787"/>
    <trip id="ship146" type="ship_ship" depart="171.13" departSpeed="max" from="33910578" to="-369717408"/>
    <trip id="ship147" type="ship_ship" depart="172.31" departSpeed="max" from="33910578" to="34573762"/>
    <trip id="ship148" type="ship_ship" depart="173.48" departSpeed="max" from="-34573787" to="-33910578"/>
    <trip id="ship149" type="ship_ship" depart="174.65" departSpeed="max" from="-34573762" to="34573787"/>
    <trip id="ship150" type="ship_ship" depart="175.82" departSpeed="max" from="369717408" to="34573762"/>
    <trip id="ship151" type="ship_ship" depart="177.00" departSpeed="max" from="369717408" to="34573762"/>
    <trip id="ship152" type="ship_ship" depart="178.17" departSpeed="max" from="-34573762" to="-33910578"/>
    <trip id="ship153" type="ship_ship" depart="179.34" departSpeed="max" from="-34573787" to="34573787"/>
    <trip id="ship154" type="ship_ship" depart="180.51" departSpeed="max" from="369717408" to="34573787"/>
    <trip id="ship155" type="ship_ship" depart="181.68" departSpeed="max" from="369717408" to="-33910578"/>
    <trip id="ship156" type="ship_ship" depart="182.86" departSpeed="max" from="-34573762" to="-33910578"/>
    <trip id="ship157" type="ship_ship" depart="184.03" departSpeed="max" from="369717408" to="34573787"/>
    <trip id="ship158" type="ship_ship" depart="185.20" departSpeed="max" from="-34573787" to="34573762"/>
    <trip id="ship159" type="ship_ship" depart="186.37" departSpeed="max" from="-34573762" to="34573787"/>
    <trip id="ship160" type="ship_ship" depart="187.54" departSpeed="max" from="369717408" to="34573787"/>
    <trip id="ship161" type="ship_ship" depart="188.72" departSpeed="max" from="369717408" to="34573787"/>
    <trip id="ship162" type="ship_ship" depart="189.89" departSpeed="max" from="-34573762" to="34573762"/>
    <trip id="ship163" type="ship_ship" depart="191.06" departSpeed="max" from="-34573787" to="34573787"/>
    <trip id="ship164" type="ship_ship" depart="192.23" departSpeed="max" from="369717408" to="34573787"/>
    <trip id="ship165" type="ship_ship" depart="193.41" departSpeed="max" from="369717408" to="-369717408"/>
    <trip id="ship166" type="ship_ship" depart="194.58" departSpeed="max" from="369717408" to="-33910578"/>
    <trip id="ship167" type="ship_ship" depart="195.75" departSpeed="max" from="369717408" to="34573787"/>
    <trip id="ship168" type="ship_ship" depart="196.92" departSpeed="max" from="-34573762" to="34573787"/>
    <trip id="ship169" type="ship_ship" depart="198.09" departSpeed="max" from="-34573787" to="-369717408"/>
    <trip id="ship170" type="ship_ship" depart="199.27" departSpeed="max" from="369717408" to="-33910578"/>
    <trip id="ship171" type="ship_ship" depart="200.44" departSpeed="max" from="-34573762" to="-33910578"/>
    <trip id="ship172" type="ship_ship" depart="201.61" departSpeed="max" from="-34573787" to="34573787"/>
    <trip id="ship173" type="ship_ship" depart="202.78" departSpeed="max" from="369717408" to="-369717408"/>
    <trip id="ship174" type="ship_ship" depart="203.95" departSpeed="max" from="33910578" to="-369717408"/>
    <trip id="ship175" type="ship_ship" depart="205.13" departSpeed="max" from="369717408" to="34573762"/>
    <trip id="ship176" type="ship_ship" depart="206.30" departSpeed="max" from="369717408" to="-33910578"/>
    <trip id="ship177" type="ship_ship" depart="207.47" departSpeed="max" from="369717408" to="-33910578"/>
    <trip id="ship178" type="ship_ship" depart="208.64" departSpeed="max" from="369717408" to="-369717408"/>
    <trip id="ship179" type="ship_ship" depart="209.82" departSpeed="max" from="-34573762" to="-369717408"/>
    <trip id="ship180" type="ship_ship" depart="210.99" departSpeed="max" from="33910578" to="-369717408"/>
    <trip id="ship181" type="ship_ship" depart="212.16" departSpeed="max" from="33910578" to="34573762"/>
    <trip id="ship182" type="ship_ship" depart="213.33" departSpeed="max" from="-34573787" to="34573762"/>
    <trip id="ship183" type="ship_ship" depart="214.50" departSpeed="max" from="-34573787" to="34573762"/>
    <trip id="ship184" type="ship_ship" depart="215.68" departSpeed="max" from="-34573762" to="34573787"/>
    <trip id="ship185" type="ship_ship" depart="216.85" departSpeed="max" from="33910578" to="34573762"/>
    <trip id="ship186" type="ship_ship" depart="218.02" departSpeed="max" from="33910578" to="34573762"/>
    <trip id="ship187" type="ship_ship" depart="219.19" departSpeed="max" from="-34573787" to="-33910578"/>
    <trip id="ship188" type="ship_ship" depart="220.36" departSpeed="max" from="33910578" to="-369717408"/>
    <trip id="ship189" type="ship_ship" depart="221.54" departSpeed="max" from="-34573787" to="34573787"/>
    <trip id="ship190" type="ship_ship" depart="222.71" departSpeed="max" from="33910578" to="-369717408"/>
    <trip id="ship191" type="ship_ship" depart="223.88" departSpeed="max" from="-34573787" to="-369717408"/>
    <trip id="ship192" type="ship_ship" depart="225.05" departSpeed="max" from="-34573787" to="-369717408"/>
    <trip id="ship193" type="ship_ship" depart="226.23" departSpeed="max" from="-34573762" to="-369717408"/>
    <trip id="ship194" type="ship_ship" depart="227.40" departSpeed="max" from="369717408" to="34573762"/>
    <trip id="ship195" type="ship_ship" depart="228.57" departSpeed="max" from="369717408" to="34573762"/>
    <trip id="ship196" type="ship_ship" depart="229.74" departSpeed="max" from="-34573787" to="34573762"/>
    <trip id="ship197" type="ship_ship" depart="230.91" departSpeed="max" from="-34573762" to="-369717408"/>
    <trip id="ship198" type="ship_ship" depart="232.09" departSpeed="max" from="-34573787" to="34573762"/>
    <trip id="ship199" type="ship_ship" depart="233.26" departSpeed="max" from="33910578" to="-369717408"/>
    <trip id="ship200" type="ship_ship" depart="234.43" departSpeed="max" from="-34573787" to="-33910578"/>
    <trip id="ship201" type="ship_ship" depart="235.60" departSpeed="max" from="-34573787" to="34573787"/>
    <trip id="ship202" type="ship_ship" depart="236.78" departSpeed="max" from="369717408" to="-33910578"/>
    <trip id="ship203" type="ship_ship" depart="237.95" departSpeed="max" from="-34573762" to="34573762"/>
    <trip id="ship204" type="ship_ship" depart="239.12" departSpeed="max" from="33910578" to="-369717408"/>
    <trip id="ship205" type="ship_ship" depart="240.29" departSpeed="max" from="369717408" to="34573787"/>
    <trip id="ship206" type="ship_ship" depart="241.46" departSpeed="max" from="33910578" to="-33910578"/>
    <trip id="ship207" type="ship_ship" depart="242.64" departSpeed="max" from="-34573762" to="-33910578"/>
    <trip id="ship208" type="ship_ship" depart="243.81" departSpeed="max" from="-34573762" to="-369717408"/>
    <trip id="ship209" type="ship_ship" depart="244.98" departSpeed="max" from="369717408" to="-33910578"/>
    <trip id="ship210" type="ship_ship" depart="246.15" departSpeed="max" from="-34573787" to="34573762"/>
    <trip id="ship211" type="ship_ship" depart="247.32" departSpeed="max" from="-34573762" to="34573762"/>
    <trip id="ship212" type="ship_ship" depart="248.50" departSpeed="max" from="-34573787" to="-33910578"/>
    <trip id="ship213" type="ship_ship" depart="249.67" departSpeed="max" from="33910578" to="-33910578"/>
    <trip id="ship214" type="ship_ship" depart="250.84" departSpeed="max" from="369717408" to="34573787"/>
    <trip id="ship215" type="ship_ship" depart="252.01" departSpeed="max" from="-34573762" to="-369717408"/>
    <trip id="ship216" type="ship_ship" depart="253.19" departSpeed="max" from="-34573762" to="34573787"/>
    <trip id="ship217" type="ship_ship" depart="254.36" departSpeed="max" from="33910578" to="-33910578"/>
    <trip id="ship218" type="ship_ship" depart="255.53" departSpeed="max" from="-34573762" to="34573787"/>
    <trip id="ship219" type="ship_ship" depart="256.70" departSpeed="max" from="-34573787" to="34573787"/>
    <trip id="ship220" type="ship_ship" depart="257.87" departSpeed="max" from="33910578" to="34573787"/>
    <trip id="ship221" type="ship_ship" depart="259.05" departSpeed="max" from="33910578" to="34573787"/>
    <trip id="ship222" type="ship_ship" depart="260.22" departSpeed="max" from="369717408" to="34573762"/>
    <trip id="ship223" type="ship_ship" depart="261.39" departSpeed="max" from="33910578" to="34573762"/>
    <trip id="ship224" type="ship_ship" depart="262.56" departSpeed="max" from="369717408" to="34573762"/>
    <trip id="ship225" type="ship_ship" depart="263.73" departSpeed="max" from="369717408" to="34573762"/>
    <trip id="ship226" type="ship_ship" depart="264.91" departSpeed="max" from="-34573787" to="-369717408"/>
    <trip id="ship227" type="ship_ship" depart="266.08" departSpeed="max" from="-34573762" to="34573762"/>
    <trip id="ship228" type="ship_ship" depart="267.25" departSpeed="max" from="369717408" to="34573762"/>
    <trip id="ship229" type="ship_ship" depart="268.42" departSpeed="max" from="33910578" to="-369717408"/>
    <trip id="ship230" type="ship_ship" depart="269.60" departSpeed="max" from="-34573762" to="-369717408"/>
    <trip id="ship231" type="ship_ship" depart="270.77" departSpeed="max" from="-34573787" to="-369717408"/>
    <trip id="ship232" type="ship_ship" depart="271.94" departSpeed="max" from="33910578" to="-33910578"/>
    <trip id="ship233" type="ship_ship" depart="273.11" departSpeed="max" from="-34573762" to="34573762"/>
    <trip id="ship234" type="ship_ship" depart="274.28" departSpeed="max" from="33910578" to="-33910578"/>
    <trip id="ship235" type="ship_ship" depart="275.46" departSpeed="max" from="-34573787" to="34573762"/>
    <trip id="ship236" type="ship_ship" depart="276.63" departSpeed="max" from="-34573787" to="-33910578"/>
    <trip id="ship237" type="ship_ship" depart="277.80" departSpeed="max" from="-34573787" to="34573787"/>
    <trip id="ship238" type="ship_ship" depart="278.97" departSpeed="max" from="33910578" to="34573762"/>
    <trip id="ship239" type="ship_ship" depart="280.14" departSpeed="max" from="369717408" to="34573787"/>
    <trip id="ship240" type="ship_ship" depart="281.32" departSpeed="max" from="-34573787" to="-33910578"/>
    <trip id="ship241" type="ship_ship" depart="282.49" departSpeed="max" from="-34573787" to="34573787"/>
    <trip id="ship242" type="ship_ship" depart="283.66" departSpeed="max" from="369717408" to="34573787"/>
    <trip id="ship243" type="ship_ship" depart="284.83" departSpeed="max" from="-34573787" to="34573762"/>
    <trip id="ship244" type="ship_ship" depart="286.01" departSpeed="max" from="33910578" to="34573762"/>
    <trip id="ship245" type="ship_ship" depart="287.18" departSpeed="max" from="-34573762" to="-33910578"/>
    <trip id="ship246" type="ship_ship" depart="288.35" departSpeed="max" from="-34573787" to="-33910578"/>
    <trip id="ship247" type="ship_ship" depart="289.52" departSpeed="max" from="-34573787" to="34573762"/>
    <trip id="ship248" type="ship_ship" depart="290.69" departSpeed="max" from="-34573787" to="-33910578"/>
    <trip id="ship249" type="ship_ship" depart="291.87" departSpeed="max" from="-34573787" to="-33910578"/>
    <trip id="ship250" type="ship_ship" depart="293.04" departSpeed="max" from="33910578" to="-33910578"/>
    <trip id="ship251" type="ship_ship" depart="294.21" departSpeed="max" from="-34573787" to="34573762"/>
    <trip id="ship252" type="ship_ship" depart="295.38" departSpeed="max" from="-34573762" to="34573762"/>
    <trip id="ship253" type="ship_ship" depart="296.55" departSpeed="max" from="-34573762" to="-369717408"/>
    <trip id="ship254" type="ship_ship" depart="297.73" departSpeed="max" from="-34573762" to="-369717408"/>
    <trip id="ship255" type="ship_ship" depart="298.90" departSpeed="max" from="-34573762" to="-369717408"/>
    <trip id="ship256" type="ship_ship" depart="300.07" departSpeed="max" from="369717408" to="-369717408"/>
    <trip id="ship257" type="ship_ship" depart="301.24" departSpeed="max" from="369717408" to="34573787"/>
    <trip id="ship258" type="ship_ship" depart="302.42" departSpeed="max" from="-34573787" to="-33910578"/>
    <trip id="ship259" type="ship_ship" depart="303.59" departSpeed="max" from="-34573762" to="34573762"/>
    <trip id="ship260" type="ship_ship" depart="304.76" departSpeed="max" from="369717408" to="-369717408"/>
    <trip id="ship261" type="ship_ship" depart="305.93" departSpeed="max" from="33910578" to="34573787"/>
    <trip id="ship262" type="ship_ship" depart="307.10" departSpeed="max" from="33910578" to="34573787"/>
    <trip id="ship263" type="ship_ship" depart="308.28" departSpeed="max" from="369717408" to="-33910578"/>
    <trip id="ship264" type="ship_ship" depart="309.45" departSpeed="max" from="-34573762" to="-33910578"/>
    <trip id="ship265" type="ship_ship" depart="310.62" departSpeed="max" from="-34573762" to="34573762"/>
    <trip id="ship266" type="ship_ship" depart="311.79" departSpeed="max" from="33910578" to="-33910578"/>
    <trip id="ship267" type="ship_ship" depart="312.97" departSpeed="max" from="33910578" to="34573787"/>