<?xml version="1.0" encoding="UTF-8"?>

<!-- generated on 2021-11-01 13:45:53 by Eclipse SUMO polyconvert Version 1.10.0
<configuration xmlns:xsi="http://www.w3.org/2001/XMLSchema-instance" xsi:noNamespaceSchemaLocation="http://sumo.dlr.de/xsd/polyconvertConfiguration.xsd">

    <input>
        <net-file value="osm.net.xml"/>
        <osm-files value="osm_bbox.osm.xml"/>
        <osm.keep-full-type value="true"/>
        <type-file value="C:\Program%20Files%20(x86)\Eclipse\Sumo\data\typemap\osmPolyconvert.typ.xml"/>
    </input>

    <output>
        <output-file value="osm.poly.xml"/>
    </output>

    <processing>
        <poi-layer-offset value="5"/>
    </processing>

    <report>
        <verbose value="true"/>
    </report>

</configuration>
-->

<additional xmlns:xsi="http://www.w3.org/2001/XMLSchema-instance" xsi:noNamespaceSchemaLocation="http://sumo.dlr.de/xsd/additional_file.xsd">
    <location netOffset="-506254.71,-3885032.50" convBoundary="0.00,0.00,208675.75,192692.90" origBoundary="-2.931212,35.102740,-0.623826,36.844192" projParameter="+proj=utm +zone=30 +ellps=WGS84 +datum=WGS84 +units=m +no_defs"/>

    <poly id="108162959" type="man_made.pier" color="255,230,230" fill="0" layer="-1.00" shape="41617.889022,191256.751949 41611.606675,191259.112859 41624.131892,191286.817116"/>
    <poly id="108162963" type="amenity.library" color="237,199,199" fill="1" layer="-1.00" shape="41843.266991,191766.580502 41849.029580,191763.040919 41852.857586,191762.585509 41855.964167,191763.557090 41859.061353,191766.192645 41860.234658,191770.015438 41859.976429,191773.109069 41858.765480,191775.953264 41856.365006,191777.847795 41847.479692,191783.277828 41845.760317,191790.889365 41835.490034,191788.923314 41837.452846,191780.836128 41831.999574,191772.230069 41826.745357,191771.013415 41824.104135,191772.906596 41821.706892,191772.649014 41813.886734,191759.980482 41814.875219,191755.471000 41821.563740,191756.928702 41822.527227,191755.270111 41824.680187,191754.572274 41826.829983,191756.015466 41829.903490,191761.268946 41833.505042,191759.858207 41836.816606,191765.590054 41838.985180,191763.705302 41840.407388,191766.087340 41843.266991,191766.580502"/>
    <poly id="108162963#1" type="building.yes" color="255,230,230" fill="1" layer="-1.00" shape="41843.266991,191766.580502 41849.029580,191763.040919 41852.857586,191762.585509 41855.964167,191763.557090 41859.061353,191766.192645 41860.234658,191770.015438 41859.976429,191773.109069 41858.765480,191775.953264 41856.365006,191777.847795 41847.479692,191783.277828 41845.760317,191790.889365 41835.490034,191788.923314 41837.452846,191780.836128 41831.999574,191772.230069 41826.745357,191771.013415 41824.104135,191772.906596 41821.706892,191772.649014 41813.886734,191759.980482 41814.875219,191755.471000 41821.563740,191756.928702 41822.527227,191755.270111 41824.680187,191754.572274 41826.829983,191756.015466 41829.903490,191761.268946 41833.505042,191759.858207 41836.816606,191765.590054 41838.985180,191763.705302 41840.407388,191766.087340 41843.266991,191766.580502"/>
    <poly id="108273587" type="building.yes" color="255,230,230" fill="1" layer="-1.00" shape="41540.690987,191606.240914 41548.622414,191600.760838 41568.688661,191613.042996 41580.845961,191610.903624 41583.866980,191616.012500 41583.248531,191624.517745 41572.391223,191630.181051 41551.292603,191641.389130 41543.828332,191627.180856 41541.218095,191621.963363 41537.621846,191614.477267 41540.690987,191606.240914"/>
    <poly id="108273587#1" type="tourism.hotel" color="207,245,201" fill="1" layer="-2.00" shape="41540.690987,191606.240914 41548.622414,191600.760838 41568.688661,191613.042996 41580.845961,191610.903624 41583.866980,191616.012500 41583.248531,191624.517745 41572.391223,191630.181051 41551.292603,191641.389130 41543.828332,191627.180856 41541.218095,191621.963363 41537.621846,191614.477267 41540.690987,191606.240914"/>
    <poly id="108273588" type="amenity.courthouse" color="237,199,199" fill="1" layer="-1.00" shape="41588.745372,191625.424991 41606.833949,191653.215950 41569.299845,191670.976700 41555.208587,191642.742319 41588.745372,191625.424991"/>
    <poly id="108273588#1" type="building.public" color="255,230,230" fill="1" layer="-1.00" shape="41588.745372,191625.424991 41606.833949,191653.215950 41569.299845,191670.976700 41555.208587,191642.742319 41588.745372,191625.424991"/>
    <poly id="149667990" type="building.office" color="255,230,230" fill="1" layer="-1.00" shape="41779.168958,191732.128593 41798.039542,191736.528173 41805.412487,191705.175121 41824.318723,191709.586052 41818.626899,191733.771071 41835.876662,191737.795505 41845.826044,191695.518826 41828.576200,191691.494373 41809.669925,191687.083433 41790.808154,191682.683880 41779.168958,191732.128593"/>
    <poly id="149667991" type="building.yes" color="255,230,230" fill="1" layer="-1.00" shape="42033.969290,191607.413236 42019.516699,191605.434362 42017.433522,191620.565205 42024.169530,191621.524126 42022.069079,191636.555029 42015.190852,191635.517649 42014.192629,191643.299641 42035.817382,191646.361937 42036.859895,191638.635666 42029.553469,191637.629129 42031.842131,191622.432891 42033.969290,191607.413236"/>
    <poly id="149667992" type="building.yes" color="255,230,230" fill="1" layer="-1.00" shape="42043.224731,191879.711627 42039.341310,191872.645233 42035.173617,191874.829223 42030.459677,191867.979997 42019.638790,191873.509819 42022.538453,191877.941467 42017.218063,191880.551582 42014.280595,191876.496902 41988.966271,191888.922495 41989.258131,191892.496260 42036.374615,191883.189448 42043.224731,191879.711627"/>
    <poly id="149667994" type="building.yes" color="255,230,230" fill="1" layer="-1.00" shape="41915.314098,191838.096887 41922.361214,191839.201705 41922.805148,191836.386462 41929.228657,191837.387918 41928.775742,191840.214203 41935.635791,191841.284693 41938.595301,191822.531205 41931.744153,191821.460763 41931.364954,191823.865912 41924.941497,191822.853361 41925.320695,191820.448213 41918.282417,191819.354536 41915.314098,191838.096887"/>
    <poly id="149667995" type="building.residential" color="255,230,230" fill="1" layer="-1.00" shape="41776.181896,191570.723409 41794.564371,191573.189953 41807.333859,191532.093958 41837.660779,191537.001976 41848.124385,191580.603049 41839.859727,191581.887623 41843.850861,191598.361820 41842.012305,191608.124824 41860.730732,191612.667894 41863.802643,191596.100444 41848.709564,191529.065916 41840.394430,191526.644974 41787.787597,191517.761870 41776.181896,191570.723409"/>
    <poly id="149667996" type="building.yes" color="255,230,230" fill="1" layer="-1.00" shape="42213.286725,191800.227045 42195.656427,191800.448496 42195.291564,191806.592231 42189.636387,191811.607629 42174.864612,191812.510986 42174.635037,191815.249780 42162.214208,191816.710102 42162.648334,191832.898012 42198.904332,191829.875882 42201.406275,191825.829881 42204.762652,191822.066078 42208.051316,191819.233747 42211.649291,191816.891291 42213.286725,191800.227045"/>
    <poly id="149667997" type="building.yes" color="255,230,230" fill="1" layer="-1.00" shape="42098.435455,191892.848852 42093.282937,191883.157161 42069.412135,191895.746017 42068.759267,191896.086213 42067.383238,191893.438153 42000.960927,191928.050686 41997.088295,191920.651566 41986.927955,191927.649513 41997.632729,191941.033440 41999.406439,191944.316072 42004.271973,191941.714463 42002.498264,191938.431830 42072.728943,191902.088133 42074.564672,191905.437693 42098.435455,191892.848852"/>
    <poly id="149667998" type="building.yes" color="255,230,230" fill="1" layer="-1.00" shape="41979.569076,191745.341405 41972.440570,191744.424671 41972.673410,191742.673214 41962.979928,191741.198389 41962.640088,191742.949241 41949.098296,191740.787047 41949.444541,191739.479971 41940.078528,191738.439672 41939.411906,191739.634001 41932.584682,191739.051809 41931.567626,191743.871736 41925.838430,191743.073888 41925.961813,191741.754458 41915.714851,191740.387493 41915.494075,191741.584344 41902.280313,191739.756884 41902.174926,191737.892579 41892.712075,191736.629914 41892.810991,191738.061536 41885.879268,191737.035051 41888.748709,191712.113049 41895.858539,191713.184916 41895.626904,191714.725606 41905.098132,191716.088162 41904.992119,191714.334788 41922.058831,191717.615096 41948.700415,191721.271308 41948.587201,191722.368925 41951.445746,191723.050706 41951.783765,191721.621555 41966.103864,191723.344417 41965.541038,191725.105100 41974.681693,191726.576799 41975.126655,191725.159348 41982.212665,191725.709758 41983.881688,191715.990195 41979.041087,191715.740924 41978.810694,191717.059748 41975.442317,191716.652410 41976.877549,191707.275422 41972.038136,191706.815385 41971.805922,191708.455911 41968.944862,191708.217849 41967.574001,191715.676025 41964.820573,191715.327639 41964.828608,191713.907715 41955.251702,191712.311530 41955.028974,191713.852269 41952.276800,191713.282023 41954.083691,191704.406342 41948.800942,191703.500070 41948.355920,191704.928616 41945.494858,191704.690562 41944.124080,191712.137649 41941.370587,191711.800363 41941.709233,191710.260280 41932.024626,191708.785542 41931.686672,191710.203600 41928.602690,191709.964291 41930.305001,191700.655367 41925.242723,191700.183004 41925.011710,191701.612761 41921.820095,191701.483781 41920.895180,191708.933392 41917.588213,191708.703920 41917.927481,191707.052905 41908.796967,191705.359455 41908.339963,191707.331517 41905.372526,191706.981940 41906.855024,191697.117094 41901.793934,191696.433974 41901.668737,191698.075106 41898.808863,191697.626298 41897.329868,191705.294651 41894.574554,191705.279082 41894.583831,191703.637294 41890.734874,191703.060872 41885.565324,191701.057021 41882.046228,191700.493560 41881.981724,191699.284003 41872.914239,191697.480012 41872.488818,191698.598054 41870.536460,191698.509374 41869.810747,191703.852347 41870.504948,191704.089231 41869.541487,191708.898374 41867.600241,191708.421484 41866.550454,191714.306209 41867.797938,191714.468563 41865.624755,191725.061687 41864.226563,191724.743173 41860.203682,191742.336953 41867.088189,191743.829078 41867.533445,191742.356155 41869.956068,191742.857951 41869.722309,191744.775809 41878.965260,191747.079996 41879.358584,191745.329443 41885.663115,191746.884868 41889.208817,191747.470669 41889.333761,191745.873909 41892.318705,191746.279046 41890.948184,191755.268141 41895.900985,191756.172513 41896.133182,191754.531985 41899.101857,191754.659696 41900.248478,191747.422112 41903.001271,191747.881409 41902.992619,191749.412265 41912.677122,191750.898064 41912.907504,191749.579239 41915.001704,191749.812947 41913.259162,191758.356194 41917.901249,191759.014766 41917.917691,191757.683637 41922.443484,191758.408115 41923.474770,191751.070040 41926.122503,191751.184852 41925.890237,191752.836472 41930.736661,191753.629328 41931.656060,191747.155915 41939.141178,191748.085726 41937.987121,191756.632297 41943.163464,191757.427026 41943.501418,191756.008968 41946.584191,191756.459052 41947.404004,191748.676044 41950.379715,191749.136617 41950.031588,191750.776488 41960.054921,191752.264258 41960.286566,191750.723570 41963.039354,191751.182887 41961.552213,191760.282246 41965.517748,191760.737332 41965.526411,191759.206476 41969.598948,191759.662170 41970.630903,191752.213169 41974.818734,191752.780453 41974.809442,191754.422240 41977.812716,191754.738763 41979.569076,191745.341405"/>
    <poly id="149667999" type="building.apartments" color="255,230,230" fill="1" layer="-1.00" shape="42038.469696,191814.033248 42037.726357,191820.895921 42036.345203,191820.721691 42035.247501,191830.322455 42036.566551,191830.440865 42036.106286,191837.704510 42045.312999,191838.511050 42045.801318,191834.165159 42044.481640,191834.157679 42044.776419,191830.920043 42053.580565,191831.957274 42054.107574,191827.079115 42052.894582,191827.127706 42053.020261,191823.833644 42045.588029,191823.026060 42045.712448,191819.953862 42047.585281,191819.909010 42048.118563,191815.496814 42038.469696,191814.033248"/>
    <poly id="149668000" type="building.yes" color="255,230,230" fill="1" layer="-1.00" shape="41977.708900,191910.136130 41986.450287,191926.970105 41998.967388,191919.497388 41996.305968,191913.935559 41999.723497,191913.522265 42000.372147,191915.500584 42000.030106,191917.639696 41999.011845,191919.519827 41997.124025,191920.640675 41998.465347,191923.122125 42000.673098,191922.191679 42002.663463,191920.283772 42004.220305,191917.774361 42004.896032,191914.971529 42004.684928,191912.884752 42008.783522,191910.300989 42010.354237,191910.065829 42008.929604,191903.401649 41990.958307,191907.193701 41977.708900,191910.136130"/>
    <poly id="149668002" type="building.yes" color="255,230,230" fill="1" layer="-1.00" shape="41746.492236,191740.819270 41756.092084,191757.336118 41760.730414,191755.498543 41761.501864,191756.268342 41765.481600,191754.205188 41769.080090,191761.247659 41759.349532,191766.351308 41795.390931,191834.613148 41821.089703,191820.403096 41808.754011,191798.878658 41802.142707,191797.964983 41793.745085,191802.310658 41790.688341,191797.245875 41796.440406,191793.983536 41790.987943,191783.646921 41794.965860,191781.905482 41780.345603,191755.930803 41785.875959,191752.456431 41787.514885,191746.452988 41748.475460,191740.175925 41746.492236,191740.819270"/>
    <poly id="149668004" type="building.yes" color="255,230,230" fill="1" layer="-1.00" shape="41945.819897,191842.706797 41964.636212,191845.608819 41970.057170,191815.775756 41970.394747,191812.848979 41971.924146,191799.434482 41973.341035,191799.597810 41973.603450,191797.347312 41973.762757,191795.983712 41970.465684,191795.587872 41970.306314,191796.962566 41965.554612,191796.769273 41965.292200,191799.019771 41958.955447,191798.440333 41958.706962,191795.077592 41954.812902,191794.600727 41954.769004,191792.903171 41951.134094,191792.327931 41950.887014,191796.597536 41951.920356,191796.780878 41951.636040,191801.327610 41950.860532,191801.278849 41945.819897,191842.706797"/>
    <poly id="149668005" type="building.yes" color="255,230,230" fill="1" layer="-1.00" shape="42014.159275,191861.708557 42020.901895,191858.318858 42024.200230,191864.782878 42029.117996,191862.414543 42028.572200,191861.168977 42031.005466,191859.784982 42028.297515,191854.566778 42039.386436,191848.949738 42042.484895,191854.491870 42045.221711,191853.043039 42045.761292,191853.811550 42048.960898,191852.520652 42049.989289,191850.429807 42050.571067,191843.754808 42043.336844,191842.626637 42043.708552,191838.402114 42035.668297,191837.890617 42035.206052,191840.783406 42024.126040,191846.400502 42023.385143,191844.965240 42015.980600,191848.717274 42016.721436,191850.163628 42010.219185,191853.621253 42014.159275,191861.708557"/>
    <poly id="149668006" type="building.yes" color="255,230,230" fill="1" layer="-1.00" shape="41933.212381,191806.237672 41932.874817,191809.164451 41939.497840,191809.579086 41939.835407,191806.652308 41941.364759,191793.237806 41942.781711,191793.390036 41943.044056,191791.150630 41943.203421,191789.775936 41939.915198,191789.391252 41939.746979,191790.754803 41934.995211,191790.572620 41934.741785,191792.812077 41928.396047,191792.243704 41928.147550,191788.880964 41924.253486,191788.404113 41924.209581,191786.706557 41920.574667,191786.131330 41920.327602,191790.400936 41921.369862,191790.584325 41921.076645,191795.131007 41920.310116,191795.071206 41919.384795,191805.749028 41919.331243,191807.335098 41926.044502,191807.561643 41926.322793,191805.655132 41933.212381,191806.237672"/>
    <poly id="149668007" type="building.yes" color="255,230,230" fill="1" layer="-1.00" shape="42004.828336,191693.899582 42011.983192,191694.894147 42010.453237,191700.520986 42066.090589,191709.400485 42077.515278,191625.753620 42062.672959,191623.317628 42049.346579,191620.879161 42050.105701,191614.382666 42039.110584,191612.833817 42038.351470,191619.330314 42037.198295,191629.274659 42061.519693,191633.273064 42053.091669,191694.838656 42042.541747,191693.425448 42043.109820,191689.168758 42034.929959,191688.090704 42034.361953,191692.336301 42023.455475,191690.898909 42025.696842,191673.028864 42034.383411,191674.387118 42035.400919,191667.925366 42026.714345,191666.567111 42027.075932,191664.128587 42010.974119,191662.084914 42009.896342,191669.744427 42016.739126,191670.737228 42014.113042,191685.687502 42006.147934,191684.477570 42005.097857,191691.970837 42004.828336,191693.899582"/>
    <poly id="149668008" type="building.yes" color="255,230,230" fill="1" layer="-1.00" shape="41873.882365,191679.214469 41889.810366,191682.033446 41896.431221,191644.974157 41880.494236,191642.155118 41873.882365,191679.214469"/>
    <poly id="149668009" type="building.yes" color="255,230,230" fill="1" layer="-1.00" shape="42035.295550,191749.462095 42033.464434,191764.172812 42060.134719,191767.452359 42061.956964,191752.741596 42035.295550,191749.462095"/>
    <poly id="149668010" type="building.yes" color="255,230,230" fill="1" layer="-1.00" shape="42086.734415,191780.027954 42086.118319,191781.743954 42085.451447,191781.407366 42084.263310,191781.788899 42083.141456,191784.633568 42083.505848,191784.846412 42080.934655,191791.676527 42080.569696,191791.563521 42079.475790,191794.197573 42080.119856,191795.410420 42080.866978,191795.747463 42080.125420,191797.573687 42085.846071,191799.869215 42088.827590,191800.873453 42090.720461,191795.725707 42092.499915,191796.423601 42095.064088,191789.260644 42093.535247,191788.397769 42095.516159,191783.450207 42089.867275,191781.077425 42089.867904,191780.966493 42086.734415,191780.027954"/>
    <poly id="149668012" type="building.yes" color="255,230,230" fill="1" layer="-1.00" shape="41948.104169,191613.860559 41974.854454,191617.273404 41977.214293,191598.938093 41950.455034,191595.525190 41948.104169,191613.860559"/>
    <poly id="149668013" type="building.yes" color="255,230,230" fill="1" layer="-1.00" shape="42093.013130,191685.535731 42086.059485,191704.089013 42099.539849,191709.224137 42099.947655,191708.072726 42100.606308,191708.287240 42101.106534,191708.134769 42106.919242,191692.647928 42106.692061,191691.825719 42105.980158,191691.566528 42106.360522,191690.536990 42093.013130,191685.535731"/>
    <poly id="149668014" type="building.yes" color="255,230,230" fill="1" layer="-1.00" shape="41952.113193,191589.300017 41978.865249,191592.413359 41980.861013,191575.385023 41954.108904,191572.271676 41952.113193,191589.300017"/>
    <poly id="149668015" type="building.church" color="255,230,230" fill="1" layer="-1.00" shape="41820.274878,191664.523590 41853.223102,191670.988458 41857.502891,191648.958724 41824.687463,191642.649899 41820.274878,191664.523590"/>
    <poly id="149668016" type="building.yes" color="255,230,230" fill="1" layer="-1.00" shape="42085.846071,191799.869215 42085.140808,191801.584709 42084.447502,191801.192503 42083.285364,191801.707306 42082.227062,191804.352653 42082.439806,191804.575730 42079.948430,191811.483953 42079.601053,191811.415421 42078.542942,191814.027489 42078.973194,191815.205842 42079.942919,191815.599616 42079.264094,191817.370728 42087.947970,191820.748044 42089.992673,191815.556785 42091.452379,191816.030995 42094.006117,191809.134223 42092.716333,191808.572229 42094.538375,191803.335334 42088.827590,191800.873453 42085.846071,191799.869215"/>
    <poly id="149668017" type="building.yes" color="255,230,230" fill="1" layer="-1.00" shape="42038.542468,191720.947977 42036.171616,191736.487648 42063.042672,191740.544885 42065.404655,191725.005171 42038.542468,191720.947977"/>
    <poly id="149668018" type="building.yes" color="255,230,230" fill="1" layer="-1.00" shape="41980.398558,191641.333328 41994.680795,191643.466481 41998.053631,191621.043405 41983.780274,191618.910297 41980.398558,191641.333328"/>
    <poly id="149668019" type="building.yes" color="255,230,230" fill="1" layer="-1.00" shape="42081.889063,191775.906961 42081.147503,191777.733184 42086.734415,191780.027954 42089.867904,191780.966493 42091.760403,191775.885306 42093.521901,191776.605285 42096.086143,191769.431236 42094.566027,191768.601691 42096.582863,191763.609959 42090.916006,191761.259262 42090.925741,191761.115101 42087.819121,191760.154527 42087.176084,191761.903655 42086.464501,191761.589000 42085.258528,191761.970431 42084.154504,191764.815202 42084.519023,191765.005860 42081.983617,191771.813990 42081.591655,191771.745205 42080.506474,191774.412587 42081.124232,191775.547630 42081.889063,191775.906961"/>
    <poly id="149668020" type="building.yes" color="255,230,230" fill="1" layer="-1.00" shape="42089.517526,191720.127666 42088.712157,191722.197584 42088.035923,191721.938597 42086.901216,191722.331526 42085.843282,191724.910314 42086.207677,191725.123158 42083.546415,191732.108069 42083.235081,191731.973181 42082.123332,191734.607131 42082.678927,191735.697447 42083.577640,191736.035351 42082.871177,191737.961615 42088.832245,191740.325069 42091.714944,191741.461869 42093.734176,191736.048596 42095.389499,191736.623757 42097.747534,191729.648222 42096.369576,191728.908232 42098.217380,191723.848980 42089.517526,191720.127666"/>
    <poly id="149668021" type="building.office" color="255,230,230" fill="1" layer="-1.00" shape="41767.944087,191644.781607 41776.343941,191646.393132 41777.794835,191638.946473 41769.386057,191637.334897 41767.944087,191644.781607"/>
    <poly id="149668022" type="building.office" color="255,230,230" fill="1" layer="-1.00" shape="41778.649278,191656.634340 41820.274878,191664.523590 41824.589376,191642.649346 41782.919838,191634.626707 41778.649278,191656.634340"/>
    <poly id="149668023" type="building.yes" color="255,230,230" fill="1" layer="-1.00" shape="42004.351879,191801.648184 41987.691518,191799.079993 41983.675883,191824.805306 42000.336195,191827.373490 42004.351879,191801.648184"/>
    <poly id="149668024" type="building.yes" color="255,230,230" fill="1" layer="-1.00" shape="41947.764097,191620.381619 41945.566957,191636.765400 41971.131217,191640.171527 41973.337385,191623.776709 41947.764097,191620.381619"/>
    <poly id="149668025" type="building.yes" color="255,230,230" fill="1" layer="-1.00" shape="42215.557836,191769.355607 42186.274037,191766.227118 42184.363156,191783.943698 42213.646895,191787.072180 42215.557836,191769.355607"/>
    <poly id="149668027" type="building.yes" color="255,230,230" fill="1" layer="-1.00" shape="42088.832245,191740.325069 42088.171624,191742.029723 42087.486727,191741.726312 42086.316293,191742.130133 42085.212140,191744.997089 42085.558953,191745.165460 42083.032457,191751.973640 42082.622723,191751.893661 42081.537791,191754.516670 42082.155550,191755.651713 42082.973255,191756.122279 42082.196277,191757.903927 42087.819121,191760.154527 42090.925741,191761.115101 42092.764681,191756.044704 42094.641976,191756.787528 42097.108454,191749.557457 42095.623687,191748.783579 42097.596070,191743.769408 42091.714944,191741.461869 42088.832245,191740.325069"/>
    <poly id="149668028" type="building.yes" color="255,230,230" fill="1" layer="-1.00" shape="41938.337499,191693.101735 41987.430796,191700.224218 41993.933077,191655.831514 41944.839527,191648.708997 41938.337499,191693.101735"/>
    <poly id="149668029" type="building.yes" color="255,230,230" fill="1" layer="-1.00" shape="41998.902397,191715.243224 41996.800061,191732.193301 42026.776407,191735.879735 42028.878802,191718.929664 41998.902397,191715.243224"/>
    <poly id="149668030" type="building.yes" color="255,230,230" fill="1" layer="-1.00" shape="41910.219165,191685.654324 41922.815486,191687.877670 41929.427565,191650.818354 41916.840170,191648.583956 41910.219165,191685.654324"/>
    <poly id="149668031" type="building.yes" color="255,230,230" fill="1" layer="-1.00" shape="41984.118741,191611.102381 42000.779410,191613.681654 42004.786391,191587.934118 41988.125673,191585.354838 41984.118741,191611.102381"/>
    <poly id="149668032" type="building.yes" color="255,230,230" fill="1" layer="-1.00" shape="41980.928141,191842.361879 42007.676250,191846.029979 42009.953966,191829.602290 41983.196952,191825.923040 41980.928141,191842.361879"/>
    <poly id="149668033" type="building.yes" color="255,230,230" fill="1" layer="-1.00" shape="42009.448975,191792.813334 42012.147996,191793.316736 42012.780088,191791.922534 42018.231001,191793.040576 42017.359008,191800.579226 42016.366167,191801.117184 42015.784106,191806.272371 42024.488373,191807.630718 42026.170575,191794.017412 42041.192952,191796.099374 42039.703848,191805.531516 42049.281326,191807.005772 42049.416311,191802.069922 42048.427178,191801.953380 42048.897151,191799.271414 42049.229033,191797.354117 42055.066442,191797.930791 42055.148943,191799.107172 42057.387180,191799.097674 42058.680276,191788.066957 42056.575599,191788.110492 42056.480520,191789.152744 42054.119709,191788.762180 42053.838006,191789.692438 42050.158455,191789.127997 42050.402893,191783.760121 42052.059593,191784.091225 42052.854422,191779.159116 42043.714465,191777.576401 42042.780951,191788.098856 42038.262591,191787.640601 42038.710138,191785.768333 42031.447920,191784.850791 42031.218148,191786.058682 42027.474354,191785.815598 42029.646862,191772.227259 42020.173264,191771.297196 42019.261278,191776.450514 42020.249848,191776.666891 42019.544632,191784.672414 42016.024321,191784.330759 42016.136287,191783.455006 42014.042098,191783.221273 42014.023202,191781.834477 42010.581508,191781.781701 42009.448975,191792.813334"/>
    <poly id="149668034" type="building.yes" color="255,230,230" fill="1" layer="-1.00" shape="41979.915338,191849.578024 41974.945853,191883.141060 41977.151854,191884.096495 42011.916827,191867.187145 42005.612194,191853.073764 41979.915338,191849.578024"/>
    <poly id="149668035" type="building.yes" color="255,230,230" fill="1" layer="-1.00" shape="41996.341585,191739.146338 41992.675412,191766.138286 42010.226763,191768.844654 42011.267560,191756.692058 42015.175208,191754.772827 42016.849743,191740.937607 41996.341585,191739.146338"/>
    <poly id="149668036" type="building.yes" color="255,230,230" fill="1" layer="-1.00" shape="41899.245195,191625.143768 41914.712793,191625.819141 41917.366120,191629.683588 41937.241963,191632.957617 41944.886966,191561.492088 41906.965241,191540.344239 41899.245195,191625.143768"/>
    <poly id="149668037" type="building.terrace" color="255,230,230" fill="1" layer="-1.00" shape="41794.627103,191573.134839 41798.708182,191572.092874 41804.444790,191570.017457 41831.437353,191563.713303 41835.205907,191562.747246 41839.958753,191581.721779 41847.938130,191580.424501 41837.597859,191537.090369 41807.404508,191532.216385 41794.627103,191573.134839"/>
    <poly id="149668038" type="building.yes" color="255,230,230" fill="1" layer="-1.00" shape="42071.392921,191864.085258 42065.369614,191852.269785 42064.160038,191850.144064 42054.436114,191855.635689 42058.253529,191863.334046 42054.934864,191865.178941 42058.474927,191871.466849 42071.392921,191864.085258"/>
    <poly id="149668039" type="building.residential" color="255,230,230" fill="1" layer="-1.00" shape="41758.432838,191724.889700 41768.535010,191672.840418 41749.374930,191669.149261 41732.584234,191665.915229 41713.950071,191673.342807 41739.272872,191721.198564 41758.432838,191724.889700"/>
    <poly id="149668040" type="building.commercial" color="255,230,230" fill="1" layer="-1.00" shape="41702.693759,191586.694641 41700.589602,191596.145559 41702.299228,191596.587827 41708.403850,191608.336925 41765.500865,191621.027734 41775.005772,191580.046419 41759.536001,191576.575725 41754.562971,191598.235512 41702.693759,191586.694641"/>
    <poly id="149668042" type="building.yes" color="255,230,230" fill="1" layer="-1.00" shape="41884.165000,191772.147424 41864.652840,191767.688561 41858.766231,191793.192585 41866.694711,191794.557483 41867.221197,191791.332245 41872.075581,191792.291515 41871.419414,191794.794943 41881.145257,191796.846710 41884.165000,191772.147424"/>
    <poly id="149668043" type="building.civic" color="255,230,230" fill="1" layer="-1.00" shape="42058.474927,191871.466849 42054.934549,191865.234407 42052.099274,191866.749238 42047.362491,191859.212075 42037.728321,191864.604386 42041.353981,191871.525102 42039.324294,191872.500921 42043.224731,191879.711627 42058.474927,191871.466849"/>
    <poly id="149668044" type="building.yes" color="255,230,230" fill="1" layer="-1.00" shape="41887.361209,191798.290701 41895.550460,191799.268827 41895.923053,191796.453180 41901.108104,191797.281213 41900.602197,191800.018452 41906.794778,191800.863276 41909.598562,191781.254700 41890.766636,191777.931160 41887.361209,191798.290701"/>
    <poly id="149668045" type="building.yes" color="255,230,230" fill="1" layer="-1.00" shape="41920.180170,191844.869253 41913.543731,191892.578220 41881.264519,191906.750817 41881.949971,191940.101794 41958.012403,191895.769494 41959.182596,191884.371981 41965.632677,191877.519407 41969.502179,191852.392307 41920.180170,191844.869253"/>
    <poly id="149668046" type="building.yes" color="255,230,230" fill="1" layer="-1.00" shape="41674.463882,191579.957373 41670.943686,191593.848830 41692.449691,191633.906423 41699.902126,191635.911907 41746.103558,191646.766323 41750.177495,191629.572149 41703.976037,191618.706619 41691.451173,191599.000637 41694.971400,191585.109189 41674.463882,191579.957373"/>
    <poly id="149668047" type="building.yes" color="255,230,230" fill="1" layer="-1.00" shape="42099.977980,191866.155507 42111.262499,191887.352703 42189.327486,191845.552041 42193.039156,191843.598497 42192.735206,191842.165705 42184.129991,191842.216626 42164.045818,191844.321184 42138.152422,191845.605155 42129.296480,191848.982763 42099.977980,191866.155507"/>