<?xml version="1.0" encoding="UTF-8"?>

<!-- generated on 2021-11-01 13:46:33 by Eclipse SUMO duarouter Version 1.10.0
<configuration xmlns:xsi="http://www.w3.org/2001/XMLSchema-instance" xsi:noNamespaceSchemaLocation="http://sumo.dlr.de/xsd/duarouterConfiguration.xsd">

    <input>
        <net-file value="C:\Users\juane\Sumo\2021-11-01-13-45-29\osm.net.xml"/>
        <route-files value="C:\Users\juane\Sumo\2021-11-01-13-45-29\osm.rail.trips.xml"/>
    </input>

    <output>
        <output-file value="C:\Users\juane\Sumo\2021-11-01-13-45-29\osm.rail.trips.xml.tmp"/>
        <write-trips value="true"/>
    </output>

    <time>
        <begin value="0"/>
        <end value="1800"/>
    </time>

    <report>
        <no-warnings value="true"/>
        <ignore-errors value="true"/>
        <no-step-log value="true"/>
    </report>

</configuration>
-->

<routes xmlns:xsi="http://www.w3.org/2001/XMLSchema-instance" xsi:noNamespaceSchemaLocation="http://sumo.dlr.de/xsd/routes_file.xsd"/>
