<?xml version="1.0" encoding="UTF-8"?>

<!-- generated on 2021-11-01 13:46:26 by Eclipse SUMO duarouter Version 1.10.0
<configuration xmlns:xsi="http://www.w3.org/2001/XMLSchema-instance" xsi:noNamespaceSchemaLocation="http://sumo.dlr.de/xsd/duarouterConfiguration.xsd">

    <input>
        <net-file value="C:\Users\juane\Sumo\2021-11-01-13-45-29\osm.net.xml"/>
        <route-files value="C:\Users\juane\Sumo\2021-11-01-13-45-29\osm.pedestrian.trips.xml"/>
    </input>

    <output>
        <output-file value="C:\Users\juane\Sumo\2021-11-01-13-45-29\osm.pedestrian.rou.xml"/>
        <alternatives-output value="C:\Users\juane\Sumo\2021-11-01-13-45-29\osm.pedestrian.rou.alt.xml"/>
    </output>

    <time>
        <begin value="0"/>
        <end value="1800"/>
    </time>

    <report>
        <no-warnings value="true"/>
        <ignore-errors value="true"/>
        <no-step-log value="true"/>
    </report>

</configuration>
-->

<routes xmlns:xsi="http://www.w3.org/2001/XMLSchema-instance" xsi:noNamespaceSchemaLocation="http://sumo.dlr.de/xsd/routes_file.xsd">
    <vType id="ped_pedestrian" vClass="pedestrian"/>
    <person id="ped0" type="ped_pedestrian" depart="0.00">
        <walk edges="35817372 625796122#4 625796122#3 625796122#1 625796122#0 625794561 208585045#7 208585045#5 208585045#4 29239868#0 29239868#1 29239861 27184962#2 27184962#3 625794557#1 207727520 -27184964#2 27184964#0 -209205075#2"/>
    </person>
    <person id="ped1" type="ped_pedestrian" depart="1.86">
        <walk edges="592750800#6 592750800#7 -592750763#1 -592750763#0 -625747350#2 -625747350#1 -625747350#0 592738081 682923255#1 682923255#0 512876420#0 27161537 512876419"/>
    </person>
    <person id="ped2" type="ped_pedestrian" depart="3.71">
        <walk edges="703116340#0 703116336#0 703116336#1 703116336#2 124414559#2 -703116347#1 124414523#2 29240527#1 25585667#0 25585667#2 25585667#3 25585669#1 25585669#2 25585669#3 204638704#0 -27197983#7 -27197983#6 -27197983#4 -27197983#3 -27197983#2"/>
    </person>
    <person id="ped3" type="ped_pedestrian" depart="5.57">
        <walk edges="27155669#1 27155669#2 46692030 188590924#10 159008542 -27155646#1 291429626#2 114797589 114797609 177364949#2 177364949#1 177364949#0 27155686 133287897#11 204156086#0 204156086#1 204156086#2 204156086#3 27162963#0 -27162961#3 -27162961#2 -27162961#1 -27162961#0 188590925#0 188590925#1 27155545#3 -27155546#0"/>
    </person>
    <person id="ped4" type="ped_pedestrian" depart="7.43">
        <walk edges="-703815043#10 703840942 124414546#2 124414546#3 124414546#4 124414546#5 124414546#6 124414563#0 124414563#1 124414563#2 33757098#1 33757098#2 33757098#3 33757098#4 33757098#6 33757098#7 33757098#8 33757098#10 58889926 188590921#0 204254794#0 204254794#1 27195012#3"/>
    </person>
    <person id="ped5" type="ped_pedestrian" depart="9.29">
        <walk edges="-241560355#3 207727508#2 625794555#1 625796128 207175855 625794554 625714313 99404704#0 99404704#1 625714306#0 89344603#1 89344603#0 89344548 27152904#2 27152904#1 27152904#0 27161530#3 27161530#1 592738091#1 -702100710#1"/>
    </person>
    <person id="ped6" type="ped_pedestrian" depart="11.14">
        <walk edges="402000694#1 402000694#2 402000694#3 27184989#3 27184989#2 27184989#1 27184989#0 195293323#14 195293323#15 31520107#0 126518384#4 126518384#3 27185033#0 28990896#2"/>
    </person>
    <person id="ped7" type="ped_pedestrian" depart="13.00">
        <walk edges="679917466#7 679917466#6 679917466#5 679917477#1 679917477#0 25585669#1 25585667#3 25585667#2 25585667#0 29240527#1 124414523#2 -703116347#2 29240550#5 124414523#4 89344586#1 89344586#2 89344586#3 89344586#4 89344586#5 89344643#0 89344643#1 89344643#2 89344643#3 89344551#0 89344551#1 89344556#2 89344556#1 89344556#0 512876470#1 625714315 630197940 27152907#1 27152907#0 99404704#3 99404704#1 99404704#0 625714313 625794554 207175855 625796128 159674415 -195293323#0 -195293323#3"/>
    </person>
    <person id="ped8" type="ped_pedestrian" depart="14.86">
        <walk edges="675528456#1 813259012#2 27197983#3 27197983#4 27197983#5 27197983#7 204638704#0 25585669#3 25585669#2 25585669#1 25585669#0 625791643 204638688#0 625791615#1 29240550#2 29240550#3 -592744819#14 -592744819#13 -592744819#12 -592744819#10 -592744819#9 -592744819#8 -592744819#7 592744589#0"/>
    </person>
    <person id="ped9" type="ped_pedestrian" depart="16.72">
        <walk edges="209204306 27185038#6 27184963#3 27184963#4 625794558#0 625794556 207727520 625794557#1 28990928#4 28990928#3 28990928#2 28990928#1 28990928#0 -625796125#1 -625796125#2 -625796125#3"/>
    </person>
    <person id="ped10" type="ped_pedestrian" depart="18.57">
        <walk edges="89134972#1 89134972#0 89134974#0 89134974#1 27161603#1 89133447#0 89133441#0 89133441#1 702993823#2 33570257#2 592750806#0 592750806#1 592750806#2 592750806#3 592738091#1 512876420#0 27161529 512876473 512876471 512876470#1 27152908#3 697557662#2 388115692 27152913 388115691 697319620#1 35726568#7 -207175836#2 207175836#1 207175836#0 207175861#1 27185008 208585050#2 208585050#1"/>
    </person>
    <person id="ped11" type="ped_pedestrian" depart="20.43">
        <walk edges="-28990958 -625796127#1 -625796127#0 -195293323#15 195293323#14 195293323#13 -31347617#2"/>
    </person>
    <person id="ped12" type="ped_pedestrian" depart="22.29">
        <walk edges="700188907#0 -700188907#2 -35031199#1 -27197940#0 27201542#2 27201542#1 -27201539#1 -27201539#3 27201535#2 27201535#1 27201535#0 28986685#2 29239861 27184962#2 27184962#3 28990928#4 -35727625#3 -35727625#2 -27185041#1 -27185041#0 33569520#1"/>
    </person>
    <person id="ped13" type="ped_pedestrian" depart="24.15">
        <walk edges="676379290#1 27155644#0 291429627 291429557#1 291429557#0 291429626#0 27155646#1 159008542 188590924#10 89138516#1 27155670#0 204255622#3 204255622#4 204255622#5 27155670#4 27155670#5 158859367#1 158859368 89138502#6 89138502#7 89138502#8 89138502#9 625981289#2 89133435 89134977 89134975 682923256#1 682923256#0 23290865#2 592740659#1 683527003 592748994 592750781#0 592750781#1"/>
    </person>
    <person id="ped14" type="ped_pedestrian" depart="26.00">
        <walk edges="697557645 -703057694#1 697557662#2 388115692 27152913 388115691 697319620#1 35726568#7 625796124#3 625796124#2 27185005 450024100#3 208585049#0 35729028#5 35729028#4"/>
    </person>
    <person id="ped15" type="ped_pedestrian" depart="27.86">
        <walk edges="700289801 27184989#2 27184989#1 27184989#0 195293323#14 35726568#0 27184992#2 27184992#1 27184992#0 33569531#1 -33569531#0 625796126 625796125#0 28990928#0 28990928#1 27185044#0 27185044#1 27185044#2 27185044#3 27185044#4 27185044#5 27185044#6 27185044#7 29333757#0 29333757#1 29333757#2 29333757#3 29333757#4 29333757#5 29333757#6 29333757#7 29333757#8 29348547#1"/>
    </person>
    <person id="ped16" type="ped_pedestrian" depart="29.72">
        <walk edges="592744817#2 -592746159#4 -675523451#0 -675523451#1 -675523451#3 -675523451#4 -675523451#5 -675523451#6 -675523451#8 -675523451#9 -675523451#10 -675523451#11 -675523451#12 -675523451#14 592750783#9 592750783#8 592750783#7 592750783#6 592750783#5 592750783#4 -592750800#4 -592750800#5 -592750800#6 -592750762#0 -592750762#1 -592750762#2 -592750762#3 592750781#0 592748994 683527003 592740659#1 23290865#2 627447205#0 627447205#1 627447204#1 627447204#2 27161556#0 27161556#1 27161556#2 27161556#3 702674937#0 702674937#1 204254789 -204254792 27155603 188590924#4 204254795 -204254796 27155595#1 27155595#3 204254788#2 -27155637"/>
    </person>
    <person id="ped17" type="ped_pedestrian" depart="31.58">
        <walk edges="-27197921#1 27197921#0 28990919#4 28990919#3 28990919#2 28990919#1 28990919#0 29077605#2 29077605#1 29077605#0 29077579#0 625796125#2 625796125#3 625796125#4 625796125#5 27184993#2 27184993#1 27184993#0 35726568#2 29348882#8 29348882#7 29348882#5 100282308#0 100282308#1"/>
    </person>
    <person id="ped18" type="ped_pedestrian" depart="33.43">
        <walk edges="-356990111 27195004#1 35834681#0 35834681#1 35834681#2 35834681#3 968599052#0 968599051#2 -27195012#0 27195012#1 -27195013 204254797#1 158605508#1 188590916#0 188590916#2 188590916#3 27152919#0 124414532#0 124414532#1 625794555#0 625794555#1 159674415 -195293323#0 -195293323#3 -195293323#4 195293323#5 195293323#6 195293323#9 195293323#10 195293323#13 195293323#14"/>
    </person>
    <person id="ped19" type="ped_pedestrian" depart="35.29">
        <walk edges="35817163#0 625796122#3 29027150#9 29027150#8 29027150#7 29027150#6 29027150#4 29027150#3 684283506#1 35729028#3 35729028#4 35729028#5 208585049#0 450024100#3 27185005 625796124#2 625796124#3 35726568#7 697319620#1 388115691 27152913 388115692 697557662#2 27152908#3 512876470#1 512876471 512876473 27161529 512876420#0 592738091#1 592750806#3 592750806#2 592750806#1 592750806#0 33570257#2 702993823#2 89133441#1 89133441#0 89133445#1 89133445#0 625981289#4 27162978#0 27162978#1 27162978#2 159008546#5 159008546#4 159008546#3 159008546#2 159008546#1 159008546#0 27155506"/>
    </person>
    <person id="ped20" type="ped_pedestrian" depart="37.15">
        <walk edges="27155525#2 787116713#1 27155536#0 27155536#1 27155536#2 27155536#3 27155536#4 89323208#2 89323208#1 89323208#0 133287895 133287896 204254788#6 204254788#5 204254788#4 204254788#2 27155650#2 27155650#1 27155650#0 27155513#1 27155513#0 33757098#1 33757098#2 33757098#3 33757098#4 33757098#6 33757098#7 33757098#8 33757098#10 204254793#0 89344664#2 89344664#1 89344664#0 204254787#1 204254787#0 625747353 706725198 89344656#2 703057684#2 -703057685"/>
    </person>
    <person id="ped22" type="ped_pedestrian" depart="40.86">
        <walk edges="-682923255#0 -682923255#1 -683566085 -592750806#3 -592750806#2 592750780#3"/>
    </person>
    <person id="ped23" type="ped_pedestrian" depart="42.72">
        <walk edges="-675523450#0 -36963449#1 204638707#1 592746159#0 -592746159#4 -675523451#0 -675523451#1 -675523451#3 -675523451#4 -675523451#5 -675523451#6 -675523451#8 -675523451#9 -675523451#10 -675523451#11 -675523451#12 -675523451#14 592750783#9 592750783#8 592750783#7 592750783#6 592750783#5 592750783#4 -592750800#4 -592750800#5 -592750800#6 -592750762#0 -592750762#1 -592750762#2 -592750762#3 592750781#0 592748994 683527003 592740659#1 23290865#2 627447205#0 627447205#1 627447204#1 627447204#2 27161556#0 27161556#1 27161556#2 27161556#3 702674937#0 702674937#1 204254789 -204254792 27155603 188590924#4 204254795 -204254796 27155595#1"/>
    </person>
    <person id="ped24" type="ped_pedestrian" depart="44.58">
        <walk edges="89344658#0 625747352#0 149667989 37524514 625796130#2 625796130#1 625796130#0 19047503 158605508#1 204254797#1 -27195013 27195012#1 -27195012#0 968599051#2 968599052#0 35834681#3 35834681#2 35834681#1"/>
    </person>
    <person id="ped25" type="ped_pedestrian" depart="46.43">
        <walk edges="698930821#1 698930825 35834744#0 35834744#1 35834744#2 35834744#3 35726568#0 35726568#1 35726568#2 35726568#3 35726568#4 35726568#5 35726568#6 697319620#1 388115691 27152913 388115692 697557662#2 27152908#3 512876470#1 512876471 512876473 27161529 512876420#0 682923255#0 682923255#1 592738081 -625747350#0 -625747350#1 -625747350#2 -625747350#3 592749241 592749244 592749243 592750764#4 592750769 592750772#2 592750772#1 592750772#0 592750783#7 592750783#6 592750783#5 -592750783#4 -592750783#2 627447201#3"/>
    </person>
    <person id="ped26" type="ped_pedestrian" depart="48.29">
        <walk edges="207175836#13 625794554 625714313 625714314 628992544#0 628992544#1 625747353 204254787#0 204254787#1 89344664#0 89344664#1 89344664#2 204254793#0 33757098#10 33757098#8 33757098#7 33757098#6 33757098#4 33757098#3 33757098#2 33757098#1 27155513#0 27155513#1 27155650#0 27155650#1 27155650#2 204254788#2 204254788#4 204254788#5 204254788#6 133287896 133287895 89323208#0 89323208#1 89323208#2 27155536#4 27155536#3 27155536#2 27155536#1 27155536#0 787116713#1 27155525#2 27155534 668999877#1 188590925#1 188590918#0 188590918#1 188590918#2 188590918#4"/>
    </person>
    <person id="ped29" type="ped_pedestrian" depart="53.86">
        <walk edges="708566978#0 708566991#0 708566991#1 708567011#1 708567011#0 703116336#0 50825348#1 50825348#0 204638711 627447207#1 627447207#0 597070051 89344551#0 89344551#1 89344556#2 89344556#1 89344556#0 512876470#1 27152908#3 697557662#2 388115692 27152913 388115691 697319620#1 35726568#7 625796124#3 625796124#2 625796124#1 625796124#0 27185003#1 27185003#0 31484392#6 31484392#5 31484392#4 25586775#6 25586775#7 25586775#8 27184962#2 27184962#1 27184962#0"/>
    </person>
    <person id="ped30" type="ped_pedestrian" depart="55.72">
        <walk edges="188590915#0 625796130#2 625796130#1 625796130#0 204254793#0 33757098#10 33757098#8 33757098#7 33757098#6 33757098#4 33757098#3 33757098#2 33757098#1 27155513#0 27155513#1 27155650#0 27155650#1 27155650#2 204254788#2 27155637 -27155641#1 -27155641#0 27155639#2 27155683#1 -27155684#0 -27155684#1 27155644#3 133287897#7 133287897#8 133287897#9 133287897#10 133287897#11"/>
    </person>
    <person id="ped31" type="ped_pedestrian" depart="57.58">
        <walk edges="29077664#1 682881613#4 682881613#3 682881613#2 682881613#1 27162978#0 27162978#1 27162978#2 159008546#5 159008546#4 159008546#3 159008546#2 159008546#1 159008546#0 -27155506 27155652#0 27155652#1 291429557#4 291429557#0 114797599#1 114797599#0 114797609 177364949#2 177364949#1"/>
    </person>
    <person id="ped32" type="ped_pedestrian" depart="59.44">
        <walk edges="31349141#3 31349141#2 207175859 -207175851#10 -207175851#9 -207175851#8 -207175851#7 -207175851#6 -207175851#5 -207175851#4 -207175851#3 -207175851#2 -207175851#1 207175861#1 207175836#0 207175836#1 207175836#2 207175836#3 207175836#4 207175836#7 207175836#10 207175836#12 207175836#13 625794554 625714313 625714314 628992544#0 628992544#1 625747353 204254787#0 204254787#1 89344664#0 89344664#1 89344664#2 204254793#0 33757098#10 33757098#8 33757098#7 33757098#6 33757098#4 33757098#3 33757098#2 33757098#1 124414563#2 124414563#1 703815031"/>
    </person>
    <person id="ped33" type="ped_pedestrian" depart="61.29">
        <walk edges="27155627#0 27155608#9 -27155619#1 27155612#2 -204213936#1 133287897#4 -27162951 27155640#1 27155640#0 -204213937#1 27155639#0 204254788#4 204254788#2 27155650#2 27155650#1 27155650#0 27155513#1 27155513#0 -703815043#4 -703815043#3 -703815043#2"/>
    </person>
    <person id="ped35" type="ped_pedestrian" depart="65.01">
        <walk edges="-39597182 27155652#2 27155652#1 27155652#0 -27155506 159008546#0 159008546#1 159008546#2 159008546#3 159008546#4 159008546#5 27162978#2 27162978#1 27162978#0 625981289#4 89133445#0 89133445#1 89133441#0 89133441#1 702993823#2 33570257#2 592750806#0 592750806#1 592750806#2 592750806#3 592738091#1 512876420#0 27161529 512876473 512876471 512876470#1 27152908#3 697557662#2 388115692 27152913 388115691 697319620#1 35726568#7 625796124#3 625796124#2 625796124#1 625796124#0 27185003#1 27185003#0 31484392#6 31484392#5 31484392#4 31484392#3 31484392#2 31484392#1 31484392#0 625794561 -27197916#0 27197916#1 27197916#2 209200745#1 35816776 35816758#3 35816747#1 35816747#0 27201541#4 35816805"/>
    </person>
    <person id="ped36" type="ped_pedestrian" depart="66.87">
        <walk edges="660624000#3 660624003#1 660624000#1 660624000#0 -703815043#4 188590924#1 188590924#2 188590924#3 188590924#4 188590924#5 188590924#6 188590924#7 -27155506 159008546#0 159008546#1 159008546#2 159008546#3 27162976#0 27162976#1 27155669#1"/>
    </person>
    <person id="ped37" type="ped_pedestrian" depart="68.72">
        <walk edges="-27185022#0 27184997#2 27184997#1 27184997#0 625796123#3 625796123#4 27184993#2 27184993#1 27184993#0 35726568#2 29348882#8 29348882#7 29348882#5 29348882#4 29348882#3 29348882#0 -207175836#13 625794554 625714313 625714314 628992544#0 628992544#1 625747353 204254787#0 204254787#1 89344664#0 89344664#1 89344664#2 204254793#0 33757098#10 33757098#8 33757098#7 33757098#6 27155661#2 27155661#1 27155656#2 27155664#1 204254792 27155603"/>
    </person>
    <person id="ped38" type="ped_pedestrian" depart="70.58">
        <walk edges="891674950 592739057#0 592739057#1 592739057#2 -592744589#0 -592744819#6 -592744819#5 -592744819#3 27185386 89344643#1 89344643#2 89344643#3 89344551#0 89344551#1 89344556#2 89344556#1 89344556#0 512876470#1 27152908#3 697557662#2 388115692 27152913 388115691 697319620#1 35726568#6 35726568#5 35726568#4 35726568#3 35726568#2 35726568#1 35726568#0 195293323#14 27184989#0 27184989#1 27184989#2 27184989#3 402000694#3 402000694#2 402002084 700289799"/>
    </person>
    <person id="ped39" type="ped_pedestrian" depart="72.44">
        <walk edges="-204213939 177364949#1 177364949#2 114797609 114797589 291429626#2 -27155646#1 159008542 188590924#10 89138516#1 27155670#0 204255622#3 204255622#4 204255622#5 27155670#4 27155670#5 158859367#1 158859368 89138502#6 89138502#7 89138502#8 89138502#9 625981289#2 89133435 89134977 89134975 682923256#1 682923256#0 23290865#2 592740659#1 683527003 592748994 592750781#0 -592750762#3 -592750762#2 -592750762#1 -592750762#0 -592750800#6 592750764#0 592750764#1 592750764#2 592750764#3"/>
    </person>
    <person id="ped40" type="ped_pedestrian" depart="74.29">
        <walk edges="533662023 35834744#2 35834744#3 -195293323#15 -625796127#0 -625796127#1 -625796127#2 -625796127#3 -625796127#4 33569509#3 -27185041#1 -35727625#2 -35727625#3 28990928#4 27184962#3 27184962#2 29239861 28986685#2 27201535#0 27201535#1 27201535#2 -27201539#3 -27201539#1 27201542#1 27201570#0 27201570#1"/>
    </person>
    <person id="ped41" type="ped_pedestrian" depart="76.15">
        <walk edges="188590918#0 188590925#1 668999877#1 27155534 27155525#2 787116713#1 27155536#0 27155536#1 27155536#2 27155536#3 27155536#4 89323208#2 89323208#1 89323208#0 133287895 133287896 204254788#6 204254788#5 204254788#4 204254788#2 27155650#2 27155650#1 27155650#0 27155513#1 27155513#0 33757098#1 33757098#2 33757098#3 33757098#4 33757098#6 33757098#7 33757098#8 33757098#10 58889926 188590921#0 204254794#0 204254794#1 -27195013 35834682#0"/>
    </person>
    <person id="ped42" type="ped_pedestrian" depart="78.01">
        <walk edges="-458511245 -195291266#3 208585050#0 208585050#1 208585050#2 27185008 207175861#1 207175836#0 207175836#1 -207175836#2 35726568#7 697319620#1 388115691 27152913 388115692 697557662#2 27152908#3 512876470#1 89344556#0 89344556#1 89344556#2 89344551#1 89344551#0 597070051 627447207#0 627447207#1 627447207#2 124414559#0 27161543#0"/>
    </person>
    <person id="ped43" type="ped_pedestrian" depart="79.87">
        <walk edges="27162978#0 625981289#4 89133445#0 89133445#1 89133447#0 89133447#1 89133447#2 89133447#3"/>
    </person>
    <person id="ped45" type="ped_pedestrian" depart="83.58">
        <walk edges="708566976#6 708566990#1 708566990#0 708566980#0 708566981#2 708566981#1 708566981#8 708566992 708566991#1 708567011#1 708567011#0 703116336#0 27161543#0 124414559#0 627447208 89344643#0 89344643#1 204638706 89344611 89344576 -592744819#0 625747350#1 625747350#2 592750763#0 592750763#1 702100700#0"/>
    </person>
    <person id="ped46" type="ped_pedestrian" depart="85.44">
        <walk edges="204254793#0 89344664#2 89344664#1 89344664#0 204254787#1 204254787#0 625747353 628992544#1 628992544#0 625714314 625714313 625794554 207175836#13 207175836#12 207175836#10 207175836#7 207175836#4 207175836#3 207175836#2 -207175836#1 178959115 27184986#1 27185011 208585047#2 208585047#1 35817302#2"/>
    </person>
    <person id="ped47" type="ped_pedestrian" depart="87.30">
        <walk edges="33758110 27201549#1 29333786#3 29333786#4 29333786#5 29333786#6 -27197939#3 -27197939#1 178361781 625796120#0 625796120#1 208585041 -25586878 204638688#0 625985015#2 625985015#1 625985016 -592746159#1 -592746159#4 -675523451#0 -675523451#1 -675523451#3 -675523451#4 -675523451#5 -675523451#6 -675523451#8 -675523451#9 -675523451#10 -675523451#11 -675523451#12 -675523451#14 625747350#5 625747350#4 625747350#3 -625747350#2"/>
    </person>
    <person id="ped48" type="ped_pedestrian" depart="89.15">
        <walk edges="625796123#2 27185002#3 27185002#4 27185002#5 27185049 -207727529#3 -207727529#2 -207727529#1 -207727529#0 28990928#4 625794557#1 207727520 625794556 625794558#0 27184963#4 27184963#3 27185038#6 27185038#4 27185038#3 27185038#2 27185038#1 27185038#0 27201584#1"/>
    </person>
    <person id="ped49" type="ped_pedestrian" depart="91.01">
        <walk edges="627447205#1 702993823#2 33570257#2 592750806#0 592750806#1 592750806#2 592750806#3 592738091#1 512876420#0 27161529 512876473 512876471 512876470#1 27152908#3 697557662#2 388115692 27152913 388115691 697319620#1 35726568#7 625796124#3 625796124#2 625796124#1 625796124#0 27185003#1 27185003#0 31484392#6 31484392#5 31484392#4 31484392#3 31484392#2 31484392#1 31484392#0 625794561 208585045#7 27197921#0 209200743#1 209200742 29333757#1 27201536#4 27201536#3 27201536#0 27201535#2"/>
    </person>
    <person id="ped50" type="ped_pedestrian" depart="92.87">
        <walk edges="-114797588#1 114797588#0 89138523#2 89138523#1 89138523#0 508214710 27155508#0 27155508#1 89138493#0 89138493#1 91440217 89138488#0 89138516#3 89138502#0 89138502#1 89138502#2 89138502#5 89138502#6 89138502#7 89138502#8 89138502#9 625981289#3 89133445#0 89133445#1 89133441#0 89133441#1 702993823#2 33570257#2 592750806#0 592750806#1 592750806#2 592750806#3 592738091#1 512876420#0 27161529 512876473 512876471 512876470#1 27152908#3 697557662#2 388115692 27152913 388115691 697319620#1 35726568#7 625796124#3 625796124#2 625796124#1 625796124#0 27185003#1 27185003#0 31484392#6 31484392#5 31484392#4 25586775#6 25586775#7 25586775#8 27184962#2 27184962#1 625794559 207727511"/>
    </person>
    <person id="ped51" type="ped_pedestrian" depart="94.73">
        <walk edges="-207175851#2 -207175851#1 207175861#1 207175836#0 207175836#1 -207175836#2 35726568#7 697319620#1 388115691 27152913 388115692 697557662#2 27152908#3 512876470#1 89344556#0 89344556#1 89344556#2 31740994#1 31741044#0 512876474#2 512876474#3 27161534#1 27161534#2 -204638701#0 703116337#2 708566976#0 708566977#0 708566977#1 708566997#0 708566997#1 708567001"/>
    </person>
    <person id="ped53" type="ped_pedestrian" depart="98.44">
        <walk edges="204638691#1 204638675 512876474#5 597070051 89344643#3 442766151 -89344611 89344596#5 89344596#4 89344596#3 89344596#2 89344596#0 682923255#1 683566085 -592750806#3 592750806#2 592750806#1 592750806#0 33570257#2 702993823#2 89133441#1 89133441#0 89133445#1 89133445#0 625981289#4 27162978#0 27162978#1 27162978#2 159008546#5 159008546#4 159008546#3 159008546#2 159008546#1 159008546#0 -27155506 27155652#0 27155652#1 291429557#4 291429557#0 291429557#1 291429627 27155644#0 27155644#1 27155644#2 27155644#3 133287897#7 27155608#11 -27155618#0 -27155618#1 -27155629#0 -27155629#1 27162952 -27162961#3 -27162961#2"/>
    </person>
    <person id="ped54" type="ped_pedestrian" depart="100.30">
        <walk edges="702993818#2 23290865#2 682923256#0 682923256#1 89134975 89134977 89133435 625981289#2 89138502#9 89138502#8 89138502#7 89138502#6 89138502#5 89138502#2 89138502#1 89138502#0 89138516#3 89138488#0 91440217 89138493#1 89138493#0 27155508#1 27155508#0 508214710 89138523#0 847196832"/>
    </person>
    <person id="ped55" type="ped_pedestrian" depart="102.16">
        <walk edges="-27197951#0 -27197946#0 209235804#1 -27197944#2 -27197944#1 27197944#0 178361781 625796121 27197914#0 27197915#0 27197915#1 27197915#2 27197915#3 27197915#4 27197915#5 27197915#6 27197915#7 625796122#5 625796122#4 625796122#3 625796122#1 625796122#0 625794561 208585045#7 208585045#5 208585045#4 29239868#0 29239868#1 29239861 27184962#1 27184962#0 625794558#1 27184963#4 27184963#3 27184963#2 27184963#1 27185039#3"/>
    </person>
    <person id="ped56" type="ped_pedestrian" depart="104.01">
        <walk edges="-27185052 28990919#1 28990919#2 28990919#3 28990919#4 208585045#7 625794561 625796122#0 625796122#1 625796122#3 625796122#4 625796122#5 625796122#6"/>
    </person>
    <person id="ped57" type="ped_pedestrian" depart="105.87">
        <walk edges="625796125#3 -27185021 27184997#1 27184997#0 625796123#2 27185002#2 27185002#1 27185002#0 35726568#6 697319620#1 388115691 27152913 388115692 697557662#2 27152908#3 512876470#1 89344556#0 89344556#1 89344556#2 89344551#1 89344551#0 89344643#3 89344643#2 89344643#1 27185386 -592744819#3 -592744819#5 -592744819#6 -592744819#7 -592744819#8 -592744819#9 -592744819#10 -592744819#12 -592744819#13 -592744817#0"/>
    </person>
    <person id="ped58" type="ped_pedestrian" depart="107.73">
        <walk edges="27185010 25586775#5 25586775#6 29077605#2 29077605#1 207727529#3 207727529#2 207727529#1 207727529#0 28990928#3"/>
    </person>
    <person id="ped59" type="ped_pedestrian" depart="109.59">
        <walk edges="188590916#0 19047503 625796130#0 625796130#1 625796130#2 204274848 -27161563#3 -27161563#2 27161563#1 27161563#0 35557075#4 35557075#2 35557075#0 625714307#0 625714307#1 625714307#2 23491026#3 -89344540 702100706#2 702100706#0"/>
    </person>
    <person id="ped60" type="ped_pedestrian" depart="111.44">
        <walk edges="27155670#1 204255622#4 204255622#5 27155670#4 27155670#5 158859367#1 158859368 89138502#6 89138502#7 89138502#8 89138502#9 625981289#3 89133445#0 89133445#1 89133441#0 89133441#1 702993823#2 33570257#2 592750806#0 592750806#1 592750806#2 592750806#3 592738091#1 27161530#1 27161530#3 27152904#0 27152904#1 27152904#2 625714305 630197940 31484336#0 -703057694#1"/>
    </person>
    <person id="ped61" type="ped_pedestrian" depart="113.30">
        <walk edges="27201584#1 27201582#0 27201570#1 27201570#0 27201542#2 27197940#0 35031199#1 35031199#0 905034714 27197939#2 27197939#0 625796121 625791644#2 625791644#1 625791644#0 625791613 30953417#1 204638688#0 625985015#2 625985015#1 625985016 -592746159#1 -592746159#4 -675523451#0 -675523451#1 -675523451#3 -675523451#4 -675523451#5 -675523451#6 -675523451#8 -675523451#9 -675523451#10 -675523451#11 -675523451#12 -675523451#14 592750783#9 592750783#8 592750783#7 592750783#6 592750783#5 -592750783#4 -592750783#2 -592750783#1 592750781#2"/>
    </person>
    <person id="ped63" type="ped_pedestrian" depart="117.01">
        <walk edges="968599048 968599052#0 968599051#2 -27195012#0 27195012#1 -27195013 204254797#1 158605508#1 188590916#0 188590916#2 188590916#3 27152919#0 124414532#0 124414532#1 625794555#0 625794555#1 159674415 -195293323#0 -195293323#3 -195293323#4 195293323#5 195293323#6 195293323#9 195293323#10 195293323#13 27184989#0 27184989#1 27184989#2 27184989#3 402000694#3 402000694#2 402000694#1"/>
    </person>
    <person id="ped64" type="ped_pedestrian" depart="118.87">
        <walk edges="27161561#2 149667988 27161568#4 89344603#0 89344548 625714305 630197940 31484336#0 -703057694#1 697557662#2 388115692 27152913 388115691 697319620#1 35726568#7 -207175836#2 207175836#1 207175836#0 207175861#1 27185008 208585050#2 208585050#1 208585050#0 195291266#3 195291266#2 195291266#1 195291266#0 625796122#6 27197915#7 27197915#6 27197915#5 27197915#4 27197915#3 27197915#2 27197915#1 27197915#0 27197914#0 625796121 27197939#0"/>
    </person>
    <person id="ped65" type="ped_pedestrian" depart="120.73">
        <walk edges="-592739089#2 627447202#0 627447202#1 23290865#2 627447205#0 36963678 89133447#1 27161603#1 27161603#0 -89133453#1"/>
    </person>
    <person id="ped66" type="ped_pedestrian" depart="122.59">
        <walk edges="209200743#0 35816654#1 -27197921#3 35816648 -27197916#2 -27197916#3 -35816899 35817184 27197915#4 27197915#3 31349231#0 31349231#1 31349231#2 31349231#3 31349231#4"/>
    </person>
    <person id="ped67" type="ped_pedestrian" depart="124.44">
        <walk edges="-968599047 35834681#3 968599052#0 968599051#2 -27195012#0 27195012#1 -27195013 204254794#1 204254794#0 188590921#0 58889926 33757098#10 33757098#8 33757098#7 33757098#6 33757098#4 33757098#3 33757098#2 33757098#1 -703815043#6"/>
    </person>
    <person id="ped68" type="ped_pedestrian" depart="126.30">
        <walk edges="-27185402#2 -27185402#1 -27185402#0 -675523451#3 -675523451#1 -675523451#0 -592746159#4 -592746159#1 625985016 625985015#1 625985015#2 204638688#0 30953417#1 625791613 625791644#0 625791644#1 625791644#2 27197914#0 27197915#0 27197915#1 -35816703#4 -35816703#3 -35816703#2 -35816703#1 35816819#0 35816819#1 35816819#2 35816898"/>
    </person>
    <person id="ped69" type="ped_pedestrian" depart="128.16">
        <walk edges="-89344651#1 149667989 37524514 625796130#2 625796130#1 625796130#0 204254793#0 33757098#10 33757098#8 33757098#7 33757098#6 33757098#4 33757098#3 33757098#2 33757098#1 124414563#2 124414563#1 124414563#0 124414546#6 703840949 703840946#0 703840946#1"/>
    </person>
    <person id="ped70" type="ped_pedestrian" depart="130.02">
        <walk edges="700289778#1 700289775#1 700289775#2 700289775#3 27184989#0 195293323#14 35726568#0 35726568#1 35726568#2 35726568#3 35726568#4 35726568#5 35726568#6 697319620#1 388115691 27152913 388115692 697557662#2 27152908#3 512876470#1 89344556#0 89344556#1 89344556#2 89344551#1 89344551#0 89344643#3 89344643#2 89344643#1 27185386 -592744819#3 -592744819#5 -592744819#6 -592744589#0 592744589#1 592744589#2 675523451#6 675523451#5 675523451#4 -27185402#0 -27185402#1 -27185402#2"/>
    </person>
    <person id="ped71" type="ped_pedestrian" depart="131.87">
        <walk edges="124414536#0 27155665 27155667#0 188590924#1 188590924#2 188590924#3 188590924#4 188590924#5 188590924#6 188590924#7 -27155506 159008546#0 159008546#1 159008546#2 27162975 46692018#0"/>
    </person>
    <person id="ped72" type="ped_pedestrian" depart="133.73">