<?xml version="1.0" encoding="UTF-8"?>

<!-- generated on 2021-11-01 13:46:08 by Eclipse SUMO duarouter Version 1.10.0
<configuration xmlns:xsi="http://www.w3.org/2001/XMLSchema-instance" xsi:noNamespaceSchemaLocation="http://sumo.dlr.de/xsd/duarouterConfiguration.xsd">

    <input>
        <net-file value="C:\Users\juane\Sumo\2021-11-01-13-45-29\osm.net.xml"/>
        <route-files value="C:\Users\juane\Sumo\2021-11-01-13-45-29\osm.truck.trips.xml"/>
    </input>

    <output>
        <output-file value="C:\Users\juane\Sumo\2021-11-01-13-45-29\osm.truck.trips.xml.tmp"/>
        <write-trips value="true"/>
    </output>

    <time>
        <begin value="0"/>
        <end value="1800"/>
    </time>

    <report>
        <no-warnings value="true"/>
        <ignore-errors value="true"/>
        <no-step-log value="true"/>
    </report>

</configuration>
-->

<routes xmlns:xsi="http://www.w3.org/2001/XMLSchema-instance" xsi:noNamespaceSchemaLocation="http://sumo.dlr.de/xsd/routes_file.xsd">
    <vType id="truck_truck" vClass="truck"/>
    <trip id="truck0" type="truck_truck" depart="0.00" departLane="best" from="625796130#2" to="-27185022#2"/>
    <trip id="truck1" type="truck_truck" depart="2.94" departLane="best" from="27155545#3" to="-241560355#2"/>
    <trip id="truck2" type="truck_truck" depart="5.87" departLane="best" departSpeed="max" from="-592749796#1" to="27185022#0"/>
    <trip id="truck3" type="truck_truck" depart="8.81" departLane="best" from="-207175836#12" to="133287897#1"/>
    <trip id="truck4" type="truck_truck" depart="11.75" departLane="best" departSpeed="max" from="-592750765" to="27201541#4"/>
    <trip id="truck5" type="truck_truck" depart="14.68" departLane="best" from="592744819#13" to="-195293323#3"/>
    <trip id="truck6" type="truck_truck" depart="17.62" departLane="best" departSpeed="max" from="592744818#0" to="33757098#2"/>
    <trip id="truck7" type="truck_truck" depart="20.56" departLane="best" from="204638688#0" to="-625747350#3"/>
    <trip id="truck8" type="truck_truck" depart="23.49" departLane="best" from="89138502#5" to="25586775#7"/>
    <trip id="truck9" type="truck_truck" depart="26.43" departLane="best" from="-27155684#1" to="-27185402#1"/>
    <trip id="truck10" type="truck_truck" depart="29.37" departLane="best" from="625714307#0" to="27210271#0"/>
    <trip id="truck11" type="truck_truck" depart="32.30" departLane="best" from="592744818#2" to="373538897"/>
    <trip id="truck12" type="truck_truck" depart="35.24" departLane="best" from="27184986#0" to="89344550#1"/>
    <trip id="truck13" type="truck_truck" depart="38.18" departLane="best" from="221652894#1" to="27197916#9"/>
    <trip id="truck14" type="truck_truck" depart="41.11" departLane="best" from="592750782#0" to="28990928#3"/>
    <trip id="truck15" type="truck_truck" depart="44.05" departLane="best" from="625794553" to="27197953#2"/>
    <trip id="truck16" type="truck_truck" depart="46.99" departLane="best" from="31349141#3" to="-27155610#2"/>
    <trip id="truck17" type="truck_truck" depart="49.92" departLane="best" from="-625796127#2" to="207175851#6"/>
    <trip id="truck18" type="truck_truck" depart="52.86" departLane="best" departSpeed="max" from="-27155634#1" to="195293321#2"/>
    <trip id="truck19" type="truck_truck" depart="55.79" departLane="best" departSpeed="max" from="-27162957" to="204638711"/>
    <trip id="truck20" type="truck_truck" depart="58.73" departLane="best" from="27201536#4" to="27155595#1"/>
    <trip id="truck21" type="truck_truck" depart="61.67" departLane="best" from="208585045#5" to="159674415"/>
    <trip id="truck22" type="truck_truck" depart="64.60" departLane="best" from="124414559#4" to="89133443"/>
    <trip id="truck23" type="truck_truck" depart="67.54" departLane="best" from="27201582#1" to="28990896#2"/>
    <trip id="truck24" type="truck_truck" depart="70.48" departLane="best" from="-28911136" to="373538897"/>
    <trip id="truck25" type="truck_truck" depart="73.41" departLane="best" from="-27197983#7" to="27155614#0"/>
    <trip id="truck26" type="truck_truck" depart="76.35" departLane="best" from="-625796127#4" to="-27155526#0"/>
    <trip id="truck27" type="truck_truck" depart="79.29" departLane="best" from="204156083#0" to="204539429"/>
    <trip id="truck29" type="truck_truck" depart="85.16" departLane="best" from="28990919#0" to="27155627#1"/>
    <trip id="truck30" type="truck_truck" depart="88.10" departLane="best" from="675523451#11" to="27162957"/>
    <trip id="truck31" type="truck_truck" depart="91.03" departLane="best" from="124414547#0" to="204156085#0"/>
    <trip id="truck32" type="truck_truck" depart="93.97" departLane="best" from="27185033#1" to="204254793#0"/>
    <trip id="truck33" type="truck_truck" depart="96.91" departLane="best" from="27152904#1" to="188590918#4"/>
    <trip id="truck34" type="truck_truck" depart="99.84" departLane="best" from="947049340" to="27185036#1"/>
    <trip id="truck35" type="truck_truck" depart="102.78" departLane="best" departSpeed="max" from="-27162962" to="29077579#1"/>
    <trip id="truck36" type="truck_truck" depart="105.72" departLane="best" from="592744589#0" to="27155660#0"/>
    <trip id="truck38" type="truck_truck" depart="111.59" departLane="best" from="89323207#3" to="625794562#2"/>
    <trip id="truck39" type="truck_truck" depart="114.53" departLane="best" departSpeed="max" from="-204156084#1" to="35817157"/>
    <trip id="truck40" type="truck_truck" depart="117.46" departLane="best" from="29239868#0" to="27185402#7"/>
    <trip id="truck41" type="truck_truck" depart="120.40" departLane="best" from="-27184964#2" to="27155680#3"/>
    <trip id="truck42" type="truck_truck" depart="123.34" departLane="best" from="625796122#5" to="204254803"/>
    <trip id="truck43" type="truck_truck" depart="126.27" departLane="best" from="27161534#2" to="124414501"/>
    <trip id="truck44" type="truck_truck" depart="129.21" departLane="best" from="668999817#1" to="625796123#1"/>
    <trip id="truck45" type="truck_truck" depart="132.15" departLane="best" from="188590924#8" to="29240550#0"/>
    <trip id="truck46" type="truck_truck" depart="135.08" departLane="best" from="27197940#1" to="-592750767#1"/>
    <trip id="truck47" type="truck_truck" depart="138.02" departLane="best" departSpeed="max" from="-204539429" to="881045792#1"/>
    <trip id="truck48" type="truck_truck" depart="140.96" departLane="best" from="625796123#0" to="592750800#4"/>
    <trip id="truck49" type="truck_truck" depart="143.89" departLane="best" from="195293323#14" to="-27155622"/>
    <trip id="truck50" type="truck_truck" depart="146.83" departLane="best" from="625796122#9" to="89138488#3"/>
    <trip id="truck51" type="truck_truck" depart="149.77" departLane="best" from="-27155651#0" to="27184993#2"/>
    <trip id="truck52" type="truck_truck" depart="152.70" departLane="best" from="-27155625#0" to="592738091#1"/>
    <trip id="truck53" type="truck_truck" depart="155.64" departLane="best" from="46692036#0" to="-29077605#0"/>
    <trip id="truck54" type="truck_truck" depart="158.57" departLane="best" from="27155652#2" to="27197916#4"/>
    <trip id="truck55" type="truck_truck" depart="161.51" departLane="best" from="124414553#0" to="625796124#0"/>
    <trip id="truck56" type="truck_truck" depart="164.45" departLane="best" from="27155546#1" to="188590915#0"/>
    <trip id="truck58" type="truck_truck" depart="170.32" departLane="best" from="27155608#8" to="27185041#1"/>
    <trip id="truck59" type="truck_truck" depart="173.26" departLane="best" from="-27185022#3" to="188590924#6"/>
    <trip id="truck60" type="truck_truck" depart="176.19" departLane="best" from="204539427" to="27201541#1"/>
    <trip id="truck61" type="truck_truck" depart="179.13" departLane="best" from="-625796127#8" to="188590918#4"/>
    <trip id="truck62" type="truck_truck" depart="182.07" departLane="best" departSpeed="max" from="-27155625#1" to="29077579#8"/>
    <trip id="truck63" type="truck_truck" depart="185.00" departLane="best" from="-625796127#4" to="675523451#10"/>
    <trip id="truck64" type="truck_truck" depart="187.94" departLane="best" from="625791643" to="-27155683#0"/>
    <trip id="truck65" type="truck_truck" depart="190.88" departLane="best" departSpeed="max" from="-881045792#5" to="31304261"/>
    <trip id="truck66" type="truck_truck" depart="193.81" departLane="best" from="-592744810#3" to="-33515305#1"/>
    <trip id="truck67" type="truck_truck" depart="196.75" departLane="best" from="771100805#2" to="27197951#1"/>
    <trip id="truck68" type="truck_truck" depart="199.69" departLane="best" from="27155650#2" to="592744814#2"/>
    <trip id="truck70" type="truck_truck" depart="205.56" departLane="best" from="33569531#1" to="31349214#0"/>
    <trip id="truck71" type="truck_truck" depart="208.50" departLane="best" from="625794553" to="204156086#2"/>
    <trip id="truck72" type="truck_truck" depart="211.43" departLane="best" from="-35817262" to="27161561#3"/>
    <trip id="truck73" type="truck_truck" depart="214.37" departLane="best" from="27155545#3" to="207175836#0"/>
    <trip id="truck74" type="truck_truck" depart="217.31" departLane="best" from="100282267#1" to="703889447"/>
    <trip id="truck75" type="truck_truck" depart="220.24" departLane="best" from="27155611#1" to="625794564#0"/>
    <trip id="truck76" type="truck_truck" depart="223.18" departLane="best" from="27185007" to="-27155615#0"/>
    <trip id="truck77" type="truck_truck" depart="226.12" departLane="best" from="99404704#1" to="597070051"/>
    <trip id="truck78" type="truck_truck" depart="229.05" departLane="best" from="27155661#2" to="188590917#0"/>
    <trip id="truck79" type="truck_truck" depart="231.99" departLane="best" from="27152907#1" to="-27155625#0"/>
    <trip id="truck80" type="truck_truck" depart="234.93" departLane="best" from="221652894#2" to="89344596#5"/>
    <trip id="truck81" type="truck_truck" depart="237.86" departLane="best" from="124414553#0" to="592744814#1"/>
    <trip id="truck82" type="truck_truck" depart="240.80" departLane="best" from="27155621#2" to="27155660#2"/>
    <trip id="truck83" type="truck_truck" depart="243.74" departLane="best" from="89138502#6" to="905034709"/>
    <trip id="truck84" type="truck_truck" depart="246.67" departLane="best" from="-27197944#0" to="207727526#2"/>
    <trip id="truck85" type="truck_truck" depart="249.61" departLane="best" from="89323202#4" to="27197983#4"/>
    <trip id="truck86" type="truck_truck" depart="252.55" departLane="best" from="27184995" to="441628566"/>
    <trip id="truck87" type="truck_truck" depart="255.48" departLane="best" from="-27155612#2" to="27201536#3"/>
    <trip id="truck88" type="truck_truck" depart="258.42" departLane="best" from="27161544#0" to="625794553"/>
    <trip id="truck89" type="truck_truck" depart="261.35" departLane="best" from="-27197951#0" to="89323202#3"/>
    <trip id="truck90" type="truck_truck" depart="264.29" departLane="best" from="-702100706#2" to="-27197983#1"/>
    <trip id="truck91" type="truck_truck" depart="267.23" departLane="best" from="625796128" to="204156084#1"/>
    <trip id="truck92" type="truck_truck" depart="270.16" departLane="best" from="27197915#1" to="28990937#1"/>
    <trip id="truck93" type="truck_truck" depart="273.10" departLane="best" departSpeed="max" from="27155545#0" to="27201536#0"/>
    <trip id="truck94" type="truck_truck" depart="276.04" departLane="best" departSpeed="max" from="-39597182" to="35816805"/>
    <trip id="truck95" type="truck_truck" depart="278.97" departLane="best" departSpeed="max" from="-881045792#5" to="27155628#0"/>
    <trip id="truck96" type="truck_truck" depart="281.91" departLane="best" from="204156083#1" to="50825348#0"/>
    <trip id="truck97" type="truck_truck" depart="284.85" departLane="best" from="964567098" to="905034711"/>
    <trip id="truck98" type="truck_truck" depart="287.78" departLane="best" from="-27155628#0" to="188590916#3"/>
    <trip id="truck99" type="truck_truck" depart="290.72" departLane="best" departSpeed="max" from="27197945" to="89344625"/>
    <trip id="truck100" type="truck_truck" depart="293.66" departLane="best" from="592750762#2" to="207727529#0"/>
    <trip id="truck101" type="truck_truck" depart="296.59" departLane="best" from="28990937#1" to="89133449#0"/>
    <trip id="truck102" type="truck_truck" depart="299.53" departLane="best" from="-27185402#4" to="-27197946#1"/>
    <trip id="truck103" type="truck_truck" depart="302.47" departLane="best" from="-27162961#2" to="27197921#1"/>
    <trip id="truck104" type="truck_truck" depart="305.40" departLane="best" from="126518384#0" to="27210271#2"/>
    <trip id="truck105" type="truck_truck" depart="308.34" departLane="best" from="31484392#0" to="133287897#9"/>
    <trip id="truck106" type="truck_truck" depart="311.28" departLane="best" from="27201535#2" to="204274848"/>
    <trip id="truck107" type="truck_truck" depart="314.21" departLane="best" from="27155668#0" to="675523451#10"/>
    <trip id="truck108" type="truck_truck" depart="317.15" departLane="best" from="625714306#0" to="-27185044#4"/>
    <trip id="truck109" type="truck_truck" depart="320.09" departLane="best" from="27155547" to="204638707#0"/>
    <trip id="truck110" type="truck_truck" depart="323.02" departLane="best" from="-158649609#2" to="592738914#0"/>
    <trip id="truck111" type="truck_truck" depart="325.96" departLane="best" from="27201539#1" to="204254792"/>
    <trip id="truck112" type="truck_truck" depart="328.90" departLane="best" from="35726568#3" to="27197916#8"/>
    <trip id="truck113" type="truck_truck" depart="331.83" departLane="best" departSpeed="max" from="-27155629#1" to="625796130#2"/>
    <trip id="truck114" type="truck_truck" depart="334.77" departLane="best" from="627447201#2" to="27197915#5"/>
    <trip id="truck115" type="truck_truck" depart="337.71" departLane="best" from="592750783#9" to="27201535#1"/>
    <trip id="truck116" type="truck_truck" depart="340.64" departLane="best" departSpeed="max" from="-27197921#4" to="-28990958"/>
    <trip id="truck117" type="truck_truck" depart="343.58" departLane="best" from="195293323#3" to="627447205#1"/>
    <trip id="truck118" type="truck_truck" depart="346.52" departLane="best" from="592744810#1" to="625794562#2"/>
    <trip id="truck119" type="truck_truck" depart="349.45" departLane="best" departSpeed="max" from="625981307#0" to="177364949#1"/>
    <trip id="truck120" type="truck_truck" depart="352.39" departLane="best" from="100282267#1" to="-27197916#3"/>
    <trip id="truck121" type="truck_truck" depart="355.33" departLane="best" from="592738115#0" to="625981289#2"/>
    <trip id="truck122" type="truck_truck" depart="358.26" departLane="best" from="27155511" to="28990958"/>
    <trip id="truck123" type="truck_truck" depart="361.20" departLane="best" from="-27197944#0" to="881045792#4"/>
    <trip id="truck124" type="truck_truck" depart="364.14" departLane="best" from="625794557#2" to="89344556#2"/>
    <trip id="truck125" type="truck_truck" depart="367.07" departLane="best" from="592744819#3" to="625796128"/>
    <trip id="truck126" type="truck_truck" depart="370.01" departLane="best" from="204254791" to="881045792#5"/>
    <trip id="truck127" type="truck_truck" depart="372.94" departLane="best" from="592744819#3" to="204539429"/>
    <trip id="truck128" type="truck_truck" depart="375.88" departLane="best" from="27155634#0" to="208585045#1"/>
    <trip id="truck129" type="truck_truck" depart="378.82" departLane="best" from="592744809#1" to="188904971"/>
    <trip id="truck130" type="truck_truck" depart="381.75" departLane="best" departSpeed="max" from="-204638701#3" to="124414563#0"/>
    <trip id="truck131" type="truck_truck" depart="384.69" departLane="best" from="204254787#0" to="625796122#0"/>
    <trip id="truck132" type="truck_truck" depart="387.63" departLane="best" from="89323202#1" to="207175836#1"/>
    <trip id="truck133" type="truck_truck" depart="390.56" departLane="best" from="27201542#1" to="27155636"/>
    <trip id="truck134" type="truck_truck" depart="393.50" departLane="best" from="881045792#4" to="-27197946#1"/>
    <trip id="truck135" type="truck_truck" depart="396.44" departLane="best" departSpeed="max" from="89138523#0" to="204539429"/>
    <trip id="truck136" type="truck_truck" depart="399.37" departLane="best" from="27197933#1" to="27185038#3"/>
    <trip id="truck137" type="truck_truck" depart="402.31" departLane="best" from="23491026#5" to="27197953#1"/>
    <trip id="truck138" type="truck_truck" depart="405.25" departLane="best" departSpeed="max" from="124414507" to="35726568#7"/>
    <trip id="truck140" type="truck_truck" depart="411.12" departLane="best" from="35726568#4" to="31349141#4"/>
    <trip id="truck141" type="truck_truck" depart="414.06" departLane="best" from="207727529#3" to="-27155678"/>
    <trip id="truck142" type="truck_truck" depart="416.99" departLane="best" from="28990958" to="25585669#1"/>
    <trip id="truck143" type="truck_truck" depart="419.93" departLane="best" departSpeed="max" from="204156081#0" to="625747353"/>
    <trip id="truck144" type="truck_truck" depart="422.87" departLane="best" from="195293323#5" to="27155646#1"/>
    <trip id="truck145" type="truck_truck" depart="425.80" departLane="best" from="27152963#0" to="207727520"/>
    <trip id="truck146" type="truck_truck" depart="428.74" departLane="best" from="-27185044#7" to="27155656#2"/>
    <trip id="truck147" type="truck_truck" depart="431.68" departLane="best" from="89133429#1" to="31349259#1"/>
    <trip id="truck148" type="truck_truck" depart="434.61" departLane="best" from="627447201#0" to="28990919#3"/>
    <trip id="truck149" type="truck_truck" depart="437.55" departLane="best" from="-114797588#0" to="207175851#10"/>
    <trip id="truck150" type="truck_truck" depart="440.49" departLane="best" from="27155557" to="27197983#7"/>
    <trip id="truck151" type="truck_truck" depart="443.42" departLane="best" from="28990915#4" to="27162961#3"/>
    <trip id="truck152" type="truck_truck" depart="446.36" departLane="best" from="27155651#0" to="627447208"/>
    <trip id="truck153" type="truck_truck" depart="449.30" departLane="best" from="-27155641#1" to="27185039#6"/>
    <trip id="truck154" type="truck_truck" depart="452.23" departLane="best" from="29077579#4" to="188590924#6"/>
    <trip id="truck155" type="truck_truck" depart="455.17" departLane="best" departSpeed="max" from="-89344570#1" to="27184962#1"/>
    <trip id="truck156" type="truck_truck" depart="458.11" departLane="best" departSpeed="max" from="27155534" to="29077579#6"/>
    <trip id="truck157" type="truck_truck" depart="461.04" departLane="best" departSpeed="max" from="-35817372" to="33570257#0"/>
    <trip id="truck158" type="truck_truck" depart="463.98" departLane="best" from="-27162961#2" to="27155661#1"/>
    <trip id="truck160" type="truck_truck" depart="469.85" departLane="best" from="100282267#0" to="625791611"/>
    <trip id="truck161" type="truck_truck" depart="472.79" departLane="best" from="27155625#0" to="592750762#2"/>
    <trip id="truck162" type="truck_truck" depart="475.72" departLane="best" from="27197915#3" to="89138493#1"/>
    <trip id="truck163" type="truck_truck" depart="478.66" departLane="best" from="625796130#1" to="28990915#2"/>
    <trip id="truck164" type="truck_truck" depart="481.60" departLane="best" from="592750783#0" to="27197916#1"/>
    <trip id="truck165" type="truck_truck" depart="484.53" departLane="best" departSpeed="max" from="625981307#0" to="42161408#2"/>
    <trip id="truck166" type="truck_truck" depart="487.47" departLane="best" from="-89344651#0" to="29239868#1"/>
    <trip id="truck167" type="truck_truck" depart="490.41" departLane="best" from="46692036#0" to="27185044#4"/>
    <trip id="truck168" type="truck_truck" depart="493.34" departLane="best" from="-27155634#0" to="207175843#2"/>
    <trip id="truck169" type="truck_truck" depart="496.28" departLane="best" from="124416224#3" to="221652894#1"/>
    <trip id="truck170" type="truck_truck" depart="499.22" departLane="best" from="27184993#0" to="-35816899"/>
    <trip id="truck171" type="truck_truck" depart="502.15" departLane="best" departSpeed="max" from="-625985017#2" to="33569531#0"/>
    <trip id="truck172" type="truck_truck" depart="505.09" departLane="best" from="31349156#0" to="-27155639#2"/>
    <trip id="truck173" type="truck_truck" depart="508.03" departLane="best" from="27155513#1" to="27197914#2"/>
    <trip id="truck174" type="truck_truck" depart="510.96" departLane="best" departSpeed="max" from="27155545#0" to="675523451#1"/>
    <trip id="truck175" type="truck_truck" depart="513.90" departLane="best" departSpeed="max" from="221652895#0" to="-195293323#14"/>
    <trip id="truck176" type="truck_truck" depart="516.84" departLane="best" from="207175843#1" to="512876418#1"/>
    <trip id="truck177" type="truck_truck" depart="519.77" departLane="best" from="625747350#3" to="89138502#7"/>
    <trip id="truck178" type="truck_truck" depart="522.71" departLane="best" departSpeed="max" from="27155545#0" to="42161421"/>
    <trip id="truck179" type="truck_truck" depart="525.65" departLane="best" from="27185002#3" to="27201584#1"/>
    <trip id="truck180" type="truck_truck" depart="528.58" departLane="best" departSpeed="max" from="-592750765" to="188590918#4"/>
    <trip id="truck181" type="truck_truck" depart="531.52" departLane="best" from="27155608#3" to="-207175851#9"/>
    <trip id="truck182" type="truck_truck" depart="534.46" departLane="best" from="204254800" to="31349261#2"/>
    <trip id="truck184" type="truck_truck" depart="540.33" departLane="best" from="27155643#2" to="-28990958"/>
    <trip id="truck185" type="truck_truck" depart="543.27" departLane="best" from="-207175836#13" to="29333757#2"/>
    <trip id="truck186" type="truck_truck" depart="546.20" departLane="best" from="-27185402#6" to="27162958"/>
    <trip id="truck188" type="truck_truck" depart="552.08" departLane="best" from="35817302#1" to="592750800#5"/>
    <trip id="truck189" type="truck_truck" depart="555.01" departLane="best" from="114797589" to="-27184995"/>
    <trip id="truck190" type="truck_truck" depart="557.95" departLane="best" departSpeed="max" from="-204539429" to="27197906#1"/>
    <trip id="truck191" type="truck_truck" depart="560.89" departLane="best" from="99404704#3" to="27155525#2"/>
    <trip id="truck192" type="truck_truck" depart="563.82" departLane="best" from="28911136" to="592744810#3"/>
    <trip id="truck193" type="truck_truck" depart="566.76" departLane="best" from="28990896#0" to="512876420#0"/>
    <trip id="truck194" type="truck_truck" depart="569.70" departLane="best" from="89133449#2" to="133287897#10"/>
    <trip id="truck195" type="truck_truck" depart="572.63" departLane="best" departSpeed="max" from="27185036#0" to="188590918#2"/>
    <trip id="truck196" type="truck_truck" depart="575.57" departLane="best" from="29348882#7" to="592738117#1"/>
    <trip id="truck197" type="truck_truck" depart="578.50" departLane="best" from="592750763#1" to="89323207#0"/>
    <trip id="truck198" type="truck_truck" depart="581.44" departLane="best" departSpeed="max" from="-27162962" to="-207175851#2"/>
    <trip id="truck199" type="truck_truck" depart="584.38" departLane="best" from="31349266#1" to="-27162954#0"/>
    <trip id="truck200" type="truck_truck" depart="587.31" departLane="best" departSpeed="max" from="-27162957" to="592738914#3"/>
    <trip id="truck201" type="truck_truck" depart="590.25" departLane="best" from="625714313" to="27201582#3"/>
    <trip id="truck203" type="truck_truck" depart="596.12" departLane="best" from="27201536#4" to="592750783#8"/>
    <trip id="truck204" type="truck_truck" depart="599.06" departLane="best" from="31349156#1" to="27155680#4"/>
    <trip id="truck205" type="truck_truck" depart="602.00" departLane="best" departSpeed="max" from="124416224#0" to="592750768"/>
    <trip id="truck206" type="truck_truck" depart="604.93" departLane="best" from="27155608#3" to="373539001"/>
    <trip id="truck207" type="truck_truck" depart="607.87" departLane="best" from="124414563#1" to="625791644#1"/>
    <trip id="truck208" type="truck_truck" depart="610.81" departLane="best" from="592750783#0" to="-27185022#2"/>
    <trip id="truck209" type="truck_truck" depart="613.74" departLane="best" from="625796124#1" to="204156084#0"/>
    <trip id="truck210" type="truck_truck" depart="616.68" departLane="best" from="27155640#1" to="28990896#2"/>
    <trip id="truck211" type="truck_truck" depart="619.62" departLane="best" from="221652894#2" to="-207175851#8"/>
    <trip id="truck212" type="truck_truck" depart="622.55" departLane="best" from="625714314" to="124414526"/>
    <trip id="truck213" type="truck_truck" depart="625.49" departLane="best" from="204638688#0" to="625796127#5"/>
    <trip id="truck214" type="truck_truck" depart="628.43" departLane="best" departSpeed="max" from="-204156084#1" to="89138488#3"/>
    <trip id="truck215" type="truck_truck" depart="631.36" departLane="best" from="-27155651#0" to="35817157"/>
    <trip id="truck216" type="truck_truck" depart="634.30" departLane="best" from="27155668#0" to="512876474#4"/>
    <trip id="truck217" type="truck_truck" depart="637.24" departLane="best" from="27155674#2" to="592744819#5"/>
    <trip id="truck218" type="truck_truck" depart="640.17" departLane="best" from="-27161543#1" to="188590924#1"/>
    <trip id="truck219" type="truck_truck" depart="643.11" departLane="best" from="27185052" to="27182765#1"/>
    <trip id="truck220" type="truck_truck" depart="646.05" departLane="best" departSpeed="max" from="27184963#0" to="27155661#1"/>
    <trip id="truck221" type="truck_truck" depart="648.98" departLane="best" from="35729028#2" to="25585669#2"/>
    <trip id="truck222" type="truck_truck" depart="651.92" departLane="best" from="114797588#1" to="-27197983#3"/>
    <trip id="truck223" type="truck_truck" depart="654.86" departLane="best" departSpeed="max" from="-35817372" to="-27197983#1"/>
    <trip id="truck224" type="truck_truck" depart="657.79" departLane="best" from="27184980" to="592738106#1"/>
    <trip id="truck225" type="truck_truck" depart="660.73" departLane="best" departSpeed="max" from="-35816805" to="188590917#1"/>
    <trip id="truck226" type="truck_truck" depart="663.67" departLane="best" from="27155661#0" to="35817372"/>
    <trip id="truck227" type="truck_truck" depart="666.60" departLane="best" from="89344551#0" to="27185050"/>
    <trip id="truck228" type="truck_truck" depart="669.54" departLane="best" from="158605508#0" to="-27197907#1"/>
    <trip id="truck229" type="truck_truck" depart="672.48" departLane="best" from="-33569574" to="-204213941"/>
    <trip id="truck230" type="truck_truck" depart="675.41" departLane="best" from="27184964#2" to="204638701#3"/>
    <trip id="truck231" type="truck_truck" depart="678.35" departLane="best" from="89323208#4" to="27197921#1"/>
    <trip id="truck232" type="truck_truck" depart="681.28" departLane="best" from="29348882#0" to="-27201584#0"/>
    <trip id="truck233" type="truck_truck" depart="684.22" departLane="best" from="27155644#3" to="27161534#1"/>
    <trip id="truck234" type="truck_truck" depart="687.16" departLane="best" from="-35816703#4" to="-27155615#2"/>
    <trip id="truck235" type="truck_truck" depart="690.09" departLane="best" from="89133429#2" to="27184963#3"/>
    <trip id="truck236" type="truck_truck" depart="693.03" departLane="best" from="592750773" to="27155639#0"/>
    <trip id="truck237" type="truck_truck" depart="695.97" departLane="best" from="-27155629#0" to="29077579#5"/>
    <trip id="truck238" type="truck_truck" depart="698.90" departLane="best" from="-27155610#0" to="-592744810#0"/>
    <trip id="truck239" type="truck_truck" depart="701.84" departLane="best" departSpeed="max" from="27185036#0" to="208585044#1"/>
    <trip id="truck240" type="truck_truck" depart="704.78" departLane="best" from="89344664#1" to="-27197950#1"/>
    <trip id="truck241" type="truck_truck" depart="707.71" departLane="best" from="46105458#0" to="28911136"/>
    <trip id="truck242" type="truck_truck" depart="710.65" departLane="best" from="27155611#0" to="625794562#1"/>
    <trip id="truck243" type="truck_truck" depart="713.59" departLane="best" from="89344651#0" to="208585045#1"/>
    <trip id="truck244" type="truck_truck" depart="716.52" departLane="best" from="27197951#0" to="28990896#2"/>
    <trip id="truck245" type="truck_truck" depart="719.46" departLane="best" from="35726568#1" to="89138488#3"/>
    <trip id="truck246" type="truck_truck" depart="722.40" departLane="best" departSpeed="max" from="-42161447" to="177364949#2"/>
    <trip id="truck247" type="truck_truck" depart="725.33" departLane="best" from="28990928#4" to="-625747351"/>
    <trip id="truck248" type="truck_truck" depart="728.27" departLane="best" from="-29333762" to="-27162951"/>
    <trip id="truck249" type="truck_truck" depart="731.21" departLane="best" from="-158649609#0" to="27161563#3"/>
    <trip id="truck250" type="truck_truck" depart="734.14" departLane="best" from="27197915#0" to="207175855"/>
    <trip id="truck251" type="truck_truck" depart="737.08" departLane="best" departSpeed="max" from="-625985017#2" to="35726568#4"/>
    <trip id="truck252" type="truck_truck" depart="740.02" departLane="best" from="31304261" to="27162953"/>
    <trip id="truck253" type="truck_truck" depart="742.95" departLane="best" from="29333757#3" to="706725196#0"/>
    <trip id="truck254" type="truck_truck" depart="745.89" departLane="best" departSpeed="max" from="28990937#0" to="89133429#1"/>